*************************************************
   ChampSim Multicore Out-of-Order Simulator
   Last compiled: Aug 25 2022 21:58:01
*************************************************
 DRAM access latency: 170
Off-chip DRAM Size: 4096 MB Channels: 1 Width: 64-bit Data Rate: 2400 MT/s
 DRAM_DBUS_RETURN_TIME: 13

trace_0 /home/cc/champsim/traces/401.bzip2-277B.champsimtrace.xz
Initialize PREUSE state
llc_initialize_replacement complete 
warmup_instructions 10000000
simulation_instructions 50000000
champsim_seed 226

num_cpus 1
cpu_freq 4000
dram_io_freq 2400
page_size 4096
block_size 64
max_read_per_cycle 20
max_fill_per_cycle 20
dram_channels 1
dram_ranks 1
dram_banks 8
dram_rows 65536
dram_columns 128
dram_row_size 8
dram_size 4096
dram_pages 1048576

fetch_width 20
decode_width 20
exec_width 20
lq_width 20
sq_width 20
retire_width 20
scheduler_size 128
branch_mispredict_penalty 20
rob_size 256
lq_size 72
sq_size 56
num_instr_destinations_sparc 4
num_instr_destinations 2
num_instr_sources 4

itlb_set 16
itlb_way 8
itlb_rq_size 16
itlb_wq_size 16
itlb_pq_size 0
itlb_mshr_size 8
itlb_latency 1

dtlb_set 16
dtlb_way 4
dtlb_rq_size 16
dtlb_wq_size 16
dtlb_pq_size 0
dtlb_mshr_size 8
dtlb_latency 1

stlb_set 128
stlb_way 12
stlb_rq_size 32
stlb_wq_size 32
stlb_pq_size 0
stlb_mshr_size 16
stlb_latency 8

l1i_size 32
l1i_set 64
l1i_way 8
l1i_rq_size 64
l1i_wq_size 64
l1i_pq_size 8
l1i_mshr_size 8
l1i_latency 1

l1d_size 32
l1d_set 64
l1d_way 8
l1d_rq_size 64
l1d_wq_size 64
l1d_pq_size 8
l1d_mshr_size 16
l1d_latency 4

l2c_size 256
l2c_set 512
l2c_way 8
l2c_rq_size 32
l2c_wq_size 32
l2c_pq_size 16
l2c_mshr_size 32
l2c_latency 10

llc_size 2048
llc_set 2048
llc_way 16
llc_rq_size 32
llc_wq_size 32
llc_pq_size 32
llc_mshr_size 64
llc_latency 20

dram_channel_width 8
dram_wq_size 64
dram_rq_size 64
tRP 15
tRCD 15
tCAS 12.5
dram_dbus_turn_around_time 30
dram_write_high_wm 56
dram_write_low_wm 48
min_dram_writes_per_switch 16
dram_mtps 2400
dram_dbus_return_time 13


Heartbeat CPU  0 instructions:    1000006 cycles:     236230 heartbeat IPC: 4.23319 cumulative IPC: 4.23319 (Simulation time: 0 hr 0 min 1 sec) 
Heartbeat CPU  0 instructions:    2000006 cycles:     474320 heartbeat IPC: 4.20009 cumulative IPC: 4.21658 (Simulation time: 0 hr 0 min 1 sec) 
Heartbeat CPU  0 instructions:    3000008 cycles:     728470 heartbeat IPC: 3.93469 cumulative IPC: 4.11823 (Simulation time: 0 hr 0 min 2 sec) 
Heartbeat CPU  0 instructions:    4000000 cycles:     979291 heartbeat IPC: 3.98688 cumulative IPC: 4.08459 (Simulation time: 0 hr 0 min 3 sec) 
Heartbeat CPU  0 instructions:    5000007 cycles:    1258652 heartbeat IPC: 3.57962 cumulative IPC: 3.97251 (Simulation time: 0 hr 0 min 4 sec) 
Heartbeat CPU  0 instructions:    6000008 cycles:    1531707 heartbeat IPC: 3.66227 cumulative IPC: 3.91720 (Simulation time: 0 hr 0 min 5 sec) 
Heartbeat CPU  0 instructions:    7000012 cycles:    1776276 heartbeat IPC: 4.08884 cumulative IPC: 3.94084 (Simulation time: 0 hr 0 min 6 sec) 
Heartbeat CPU  0 instructions:    8000000 cycles:    2033302 heartbeat IPC: 3.89061 cumulative IPC: 3.93449 (Simulation time: 0 hr 0 min 7 sec) 
Heartbeat CPU  0 instructions:    9000005 cycles:    2309312 heartbeat IPC: 3.62308 cumulative IPC: 3.89727 (Simulation time: 0 hr 0 min 8 sec) 
Heartbeat CPU  0 instructions:   10000003 cycles:    2564010 heartbeat IPC: 3.92621 cumulative IPC: 3.90014 (Simulation time: 0 hr 0 min 9 sec) 

Warmup complete CPU  0 instructions:   10000003 cycles:    2564010 (Simulation time: 0 hr 0 min 9 sec) 

Heartbeat CPU  0 instructions:   11000017 cycles:    3787916 heartbeat IPC: 0.81707 cumulative IPC: 0.81707 (Simulation time: 0 hr 0 min 11 sec) 
Heartbeat CPU  0 instructions:   12000000 cycles:    4886891 heartbeat IPC: 0.90992 cumulative IPC: 0.86100 (Simulation time: 0 hr 0 min 12 sec) 
Heartbeat CPU  0 instructions:   13000016 cycles:    5866158 heartbeat IPC: 1.02119 cumulative IPC: 0.90850 (Simulation time: 0 hr 0 min 14 sec) 
Heartbeat CPU  0 instructions:   14000006 cycles:    6880222 heartbeat IPC: 0.98612 cumulative IPC: 0.92674 (Simulation time: 0 hr 0 min 16 sec) 
Heartbeat CPU  0 instructions:   15000000 cycles:    7963532 heartbeat IPC: 0.92309 cumulative IPC: 0.92601 (Simulation time: 0 hr 0 min 18 sec) 
Heartbeat CPU  0 instructions:   16000000 cycles:    9070395 heartbeat IPC: 0.90345 cumulative IPC: 0.92217 (Simulation time: 0 hr 0 min 19 sec) 
Heartbeat CPU  0 instructions:   17000002 cycles:   10175521 heartbeat IPC: 0.90488 cumulative IPC: 0.91966 (Simulation time: 0 hr 0 min 21 sec) 
Heartbeat CPU  0 instructions:   18000006 cycles:   11191200 heartbeat IPC: 0.98457 cumulative IPC: 0.92730 (Simulation time: 0 hr 0 min 23 sec) 
Heartbeat CPU  0 instructions:   19000005 cycles:   12479745 heartbeat IPC: 0.77607 cumulative IPC: 0.90765 (Simulation time: 0 hr 0 min 25 sec) 
Heartbeat CPU  0 instructions:   20000000 cycles:   14019913 heartbeat IPC: 0.64928 cumulative IPC: 0.87291 (Simulation time: 0 hr 0 min 26 sec) 
Heartbeat CPU  0 instructions:   21000005 cycles:   15613520 heartbeat IPC: 0.62751 cumulative IPC: 0.84294 (Simulation time: 0 hr 0 min 28 sec) 
Heartbeat CPU  0 instructions:   22000005 cycles:   17011179 heartbeat IPC: 0.71548 cumulative IPC: 0.83061 (Simulation time: 0 hr 0 min 30 sec) 
Heartbeat CPU  0 instructions:   23000005 cycles:   18511024 heartbeat IPC: 0.66674 cumulative IPC: 0.81520 (Simulation time: 0 hr 0 min 32 sec) 
Heartbeat CPU  0 instructions:   24000000 cycles:   20078912 heartbeat IPC: 0.63780 cumulative IPC: 0.79932 (Simulation time: 0 hr 0 min 33 sec) 
Heartbeat CPU  0 instructions:   25000019 cycles:   21628570 heartbeat IPC: 0.64532 cumulative IPC: 0.78680 (Simulation time: 0 hr 0 min 35 sec) 
Heartbeat CPU  0 instructions:   26000002 cycles:   23236208 heartbeat IPC: 0.62202 cumulative IPC: 0.77399 (Simulation time: 0 hr 0 min 37 sec) 
Heartbeat CPU  0 instructions:   27000004 cycles:   24863940 heartbeat IPC: 0.61435 cumulative IPC: 0.76233 (Simulation time: 0 hr 0 min 39 sec) 
Heartbeat CPU  0 instructions:   28000000 cycles:   26478019 heartbeat IPC: 0.61955 cumulative IPC: 0.75270 (Simulation time: 0 hr 0 min 40 sec) 
Heartbeat CPU  0 instructions:   29000003 cycles:   28083287 heartbeat IPC: 0.62295 cumulative IPC: 0.74454 (Simulation time: 0 hr 0 min 42 sec) 
Heartbeat CPU  0 instructions:   30000000 cycles:   29586966 heartbeat IPC: 0.66503 cumulative IPC: 0.74011 (Simulation time: 0 hr 0 min 44 sec) 
Heartbeat CPU  0 instructions:   31000000 cycles:   31184311 heartbeat IPC: 0.62604 cumulative IPC: 0.73374 (Simulation time: 0 hr 0 min 46 sec) 
Heartbeat CPU  0 instructions:   32000000 cycles:   32752220 heartbeat IPC: 0.63779 cumulative IPC: 0.72876 (Simulation time: 0 hr 0 min 48 sec) 
Heartbeat CPU  0 instructions:   33000002 cycles:   34278305 heartbeat IPC: 0.65527 cumulative IPC: 0.72522 (Simulation time: 0 hr 0 min 49 sec) 
Heartbeat CPU  0 instructions:   34000004 cycles:   35803314 heartbeat IPC: 0.65574 cumulative IPC: 0.72204 (Simulation time: 0 hr 0 min 51 sec) 
Heartbeat CPU  0 instructions:   35000000 cycles:   37440304 heartbeat IPC: 0.61087 cumulative IPC: 0.71682 (Simulation time: 0 hr 0 min 53 sec) 
Heartbeat CPU  0 instructions:   36000000 cycles:   39003695 heartbeat IPC: 0.63964 cumulative IPC: 0.71351 (Simulation time: 0 hr 0 min 55 sec) 
Heartbeat CPU  0 instructions:   37000007 cycles:   40571789 heartbeat IPC: 0.63772 cumulative IPC: 0.71038 (Simulation time: 0 hr 0 min 56 sec) 
Heartbeat CPU  0 instructions:   38000003 cycles:   42154340 heartbeat IPC: 0.63189 cumulative IPC: 0.70724 (Simulation time: 0 hr 0 min 58 sec) 
Heartbeat CPU  0 instructions:   39000000 cycles:   43678663 heartbeat IPC: 0.65603 cumulative IPC: 0.70534 (Simulation time: 0 hr 1 min 0 sec) 
Heartbeat CPU  0 instructions:   40000000 cycles:   45218479 heartbeat IPC: 0.64943 cumulative IPC: 0.70333 (Simulation time: 0 hr 1 min 2 sec) 
Heartbeat CPU  0 instructions:   41000018 cycles:   46531590 heartbeat IPC: 0.76156 cumulative IPC: 0.70507 (Simulation time: 0 hr 1 min 4 sec) 
Heartbeat CPU  0 instructions:   42000000 cycles:   47929736 heartbeat IPC: 0.71522 cumulative IPC: 0.70538 (Simulation time: 0 hr 1 min 5 sec) 
Heartbeat CPU  0 instructions:   43000000 cycles:   49370568 heartbeat IPC: 0.69404 cumulative IPC: 0.70503 (Simulation time: 0 hr 1 min 7 sec) 
Heartbeat CPU  0 instructions:   44000000 cycles:   50842625 heartbeat IPC: 0.67932 cumulative IPC: 0.70425 (Simulation time: 0 hr 1 min 9 sec) 
Heartbeat CPU  0 instructions:   45000006 cycles:   52384820 heartbeat IPC: 0.64843 cumulative IPC: 0.70252 (Simulation time: 0 hr 1 min 11 sec) 
Heartbeat CPU  0 instructions:   46000000 cycles:   53841439 heartbeat IPC: 0.68652 cumulative IPC: 0.70206 (Simulation time: 0 hr 1 min 12 sec) 
Heartbeat CPU  0 instructions:   47000005 cycles:   55306919 heartbeat IPC: 0.68237 cumulative IPC: 0.70152 (Simulation time: 0 hr 1 min 14 sec) 
Heartbeat CPU  0 instructions:   48000000 cycles:   56683356 heartbeat IPC: 0.72651 cumulative IPC: 0.70215 (Simulation time: 0 hr 1 min 16 sec) 
Heartbeat CPU  0 instructions:   49000000 cycles:   58151455 heartbeat IPC: 0.68115 cumulative IPC: 0.70160 (Simulation time: 0 hr 1 min 18 sec) 
Heartbeat CPU  0 instructions:   50000000 cycles:   59612741 heartbeat IPC: 0.68433 cumulative IPC: 0.70115 (Simulation time: 0 hr 1 min 19 sec) 
Heartbeat CPU  0 instructions:   51000001 cycles:   61126848 heartbeat IPC: 0.66046 cumulative IPC: 0.70010 (Simulation time: 0 hr 1 min 21 sec) 
Heartbeat CPU  0 instructions:   52000000 cycles:   62692374 heartbeat IPC: 0.63876 cumulative IPC: 0.69851 (Simulation time: 0 hr 1 min 23 sec) 
Heartbeat CPU  0 instructions:   53000000 cycles:   64287304 heartbeat IPC: 0.62699 cumulative IPC: 0.69666 (Simulation time: 0 hr 1 min 25 sec) 
Heartbeat CPU  0 instructions:   54000006 cycles:   65901403 heartbeat IPC: 0.61954 cumulative IPC: 0.69469 (Simulation time: 0 hr 1 min 27 sec) 
Heartbeat CPU  0 instructions:   55000001 cycles:   67483911 heartbeat IPC: 0.63191 cumulative IPC: 0.69316 (Simulation time: 0 hr 1 min 28 sec) 
Heartbeat CPU  0 instructions:   56000000 cycles:   69063659 heartbeat IPC: 0.63301 cumulative IPC: 0.69173 (Simulation time: 0 hr 1 min 30 sec) 
Heartbeat CPU  0 instructions:   57000004 cycles:   70651043 heartbeat IPC: 0.62997 cumulative IPC: 0.69029 (Simulation time: 0 hr 1 min 32 sec) 
Heartbeat CPU  0 instructions:   58000005 cycles:   72174961 heartbeat IPC: 0.65620 cumulative IPC: 0.68955 (Simulation time: 0 hr 1 min 34 sec) 
Heartbeat CPU  0 instructions:   59000002 cycles:   73779849 heartbeat IPC: 0.62309 cumulative IPC: 0.68805 (Simulation time: 0 hr 1 min 35 sec) 
Heartbeat CPU  0 instructions:   60000000 cycles:   75411753 heartbeat IPC: 0.61278 cumulative IPC: 0.68636 (Simulation time: 0 hr 1 min 37 sec) 
Finished CPU 0 instructions: 50000002 cycles: 72847756 cumulative IPC: 0.68636 (Simulation time: 0 hr 1 min 37 sec) 

ChampSim completed all CPUs

[ROI Statistics]
Core_0_instructions 50000002
Core_0_cycles 72847756
Core_0_IPC 0.68636

Core_0_branch_prediction_accuracy 91.14802
Core_0_branch_MPKI 15.09484
Core_0_average_ROB_occupancy_at_mispredict 55.54501

Core_0_L1D_total_access 11716489
Core_0_L1D_total_hit 11423503
Core_0_L1D_total_miss_isca 292986
Core_0_L1D_total_overlap_miss 0
Core_0_L1D_loads 6587616
Core_0_L1D_load_hit 6349213
Core_0_L1D_load_miss 238403
Core_0_L1D_RFOs 5128873
Core_0_L1D_RFO_hit 5074290
Core_0_L1D_RFO_miss 54583
Core_0_L1D_prefetches 0
Core_0_L1D_prefetch_hit 0
Core_0_L1D_prefetch_miss 0
Core_0_L1D_writebacks 0
Core_0_L1D_writeback_hit 0
Core_0_L1D_writeback_miss 0
Core_0_L1D_miss_rate 0.02501
Core_0_L1D_MPKI 5.85972
Core_0_L1D_demand_miss 292986
Core_0_L1D_prefetch_requested 0
Core_0_L1D_prefetch_issued 0
Core_0_L1D_prefetch_useful 0
Core_0_L1D_prefetch_useless 0
Core_0_L1D_prefetch_late 0
Core_0_L1D_average_miss_latency 145.16875

Replacement_count: 0
Bypassing_count: 0
Core_0_L1I_total_access 6723711
Core_0_L1I_total_hit 6723585
Core_0_L1I_total_miss_isca 126
Core_0_L1I_total_overlap_miss 0
Core_0_L1I_loads 6723711
Core_0_L1I_load_hit 6723585
Core_0_L1I_load_miss 126
Core_0_L1I_RFOs 0
Core_0_L1I_RFO_hit 0
Core_0_L1I_RFO_miss 0
Core_0_L1I_prefetches 0
Core_0_L1I_prefetch_hit 0
Core_0_L1I_prefetch_miss 0
Core_0_L1I_writebacks 0
Core_0_L1I_writeback_hit 0
Core_0_L1I_writeback_miss 0
Core_0_L1I_miss_rate 0.00002
Core_0_L1I_MPKI 0.00252
Core_0_L1I_demand_miss 126
Core_0_L1I_prefetch_requested 0
Core_0_L1I_prefetch_issued 0
Core_0_L1I_prefetch_useful 0
Core_0_L1I_prefetch_useless 0
Core_0_L1I_prefetch_late 0
Core_0_L1I_average_miss_latency 311.63492

Replacement_count: 0
Bypassing_count: 0
Core_0_L2C_total_access 349167
Core_0_L2C_total_hit 147516
Core_0_L2C_total_miss_isca 201651
Core_0_L2C_total_overlap_miss 0
Core_0_L2C_loads 238529
Core_0_L2C_load_hit 84928
Core_0_L2C_load_miss 153601
Core_0_L2C_RFOs 54583
Core_0_L2C_RFO_hit 6568
Core_0_L2C_RFO_miss 48015
Core_0_L2C_prefetches 0
Core_0_L2C_prefetch_hit 0
Core_0_L2C_prefetch_miss 0
Core_0_L2C_writebacks 56055
Core_0_L2C_writeback_hit 56020
Core_0_L2C_writeback_miss 35
Core_0_L2C_miss_rate 0.57752
Core_0_L2C_MPKI 4.03302
Core_0_L2C_demand_miss 201651
Core_0_L2C_prefetch_requested 0
Core_0_L2C_prefetch_issued 0
Core_0_L2C_prefetch_useful 0
Core_0_L2C_prefetch_useless 0
Core_0_L2C_prefetch_late 0
Core_0_L2C_average_miss_latency 170.38946

Replacement_count: 0
Bypassing_count: 0
Core_0_LLC_total_access 246621
Core_0_LLC_total_hit 179638
Core_0_LLC_total_miss_isca 66983
Core_0_LLC_total_overlap_miss 0
Core_0_LLC_loads 153600
Core_0_LLC_load_hit 121097
Core_0_LLC_load_miss 32503
Core_0_LLC_RFOs 48015
Core_0_LLC_RFO_hit 13635
Core_0_LLC_RFO_miss 34380
Core_0_LLC_prefetches 0
Core_0_LLC_prefetch_hit 0
Core_0_LLC_prefetch_miss 0
Core_0_LLC_writebacks 45006
Core_0_LLC_writeback_hit 44906
Core_0_LLC_writeback_miss 100
Core_0_LLC_miss_rate 0.27160
Core_0_LLC_MPKI 1.33966
Core_0_LLC_demand_miss 66983
Core_0_LLC_prefetch_requested 0
Core_0_LLC_prefetch_issued 0
Core_0_LLC_prefetch_useful 0
Core_0_LLC_prefetch_useless 0
Core_0_LLC_prefetch_late 0
Core_0_LLC_average_miss_latency 332.31080

Replacement_count: 0
Bypassing_count: 0
Core_0_major_page_fault 0
Core_0_minor_page_fault 935


demand_hit_count: 134732
presuse_distance_0_count: 0
presuse_distance_1_count: 3746
presuse_distance_2_count: 7996
presuse_distance_3_count: 11073
presuse_distance_4_count: 11682
presuse_distance_5_count: 10396
presuse_distance_6_count: 8873
presuse_distance_7_count: 7536
presuse_distance_8_count: 6798
presuse_distance_9_count: 5944
presuse_distance_10_count: 5535
presuse_distance_11_count: 5065
presuse_distance_12_count: 4793
presuse_distance_13_count: 4339
presuse_distance_14_count: 4061
presuse_distance_15_count: 4014
presuse_distance_16_count: 3743
presuse_distance_17_count: 3441
presuse_distance_18_count: 3072
presuse_distance_19_count: 2767
presuse_distance_20_count: 2528
presuse_distance_21_count: 2311
presuse_distance_22_count: 1999
presuse_distance_23_count: 1729
presuse_distance_24_count: 1612
presuse_distance_25_count: 1378
presuse_distance_26_count: 1256
presuse_distance_27_count: 1116
presuse_distance_28_count: 957
presuse_distance_29_count: 791
presuse_distance_30_count: 754
presuse_distance_31_count: 591
presuse_distance_32_count: 536
presuse_distance_33_count: 438
presuse_distance_34_count: 378
presuse_distance_35_count: 305
presuse_distance_36_count: 273
presuse_distance_37_count: 202
presuse_distance_38_count: 157
presuse_distance_39_count: 117
presuse_distance_40_count: 101
presuse_distance_41_count: 67
presuse_distance_42_count: 66
presuse_distance_43_count: 53
presuse_distance_44_count: 42
presuse_distance_45_count: 22
presuse_distance_46_count: 18
presuse_distance_47_count: 19
presuse_distance_48_count: 9
presuse_distance_49_count: 9
presuse_distance_50_count: 7
presuse_distance_51_count: 3
presuse_distance_52_count: 4
presuse_distance_53_count: 5
presuse_distance_54_count: 1
presuse_distance_55_count: 2
presuse_distance_56_count: 0
presuse_distance_57_count: 1
presuse_distance_58_count: 1
presuse_distance_59_count: 0
presuse_distance_60_count: 0
presuse_distance_61_count: 0
presuse_distance_62_count: 0
presuse_distance_63_count: 0
presuse_distance_64_count: 0
presuse_distance_larger_than_64_count: 0
Channel_0_RQ_row_buffer_hit 17262
Channel_0_RQ_row_buffer_miss 49621
Channel_0_WQ_row_buffer_hit 3630
Channel_0_WQ_row_buffer_miss 15506
Channel_0_WQ_full 0
Channel_0_dbus_congested 13693

avg_congested_cycle 10

DRAM_bw_pochs 0
DRAM_bw_level_0 0
DRAM_bw_level_1 0
DRAM_bw_level_2 0
DRAM_bw_level_3 0
LLC_cal_level_0 213
LLC_cal_level_1 47
LLC_cal_level_2 0
LLC_cal_level_3 0
*************************************************
   ChampSim Multicore Out-of-Order Simulator
   Last compiled: Aug 25 2022 21:58:01
*************************************************
 DRAM access latency: 170
Off-chip DRAM Size: 4096 MB Channels: 1 Width: 64-bit Data Rate: 2400 MT/s
 DRAM_DBUS_RETURN_TIME: 13

trace_0 /home/cc/champsim/traces/403.gcc-17B.champsimtrace.xz
Initialize PREUSE state
llc_initialize_replacement complete 
warmup_instructions 10000000
simulation_instructions 50000000
champsim_seed 170

num_cpus 1
cpu_freq 4000
dram_io_freq 2400
page_size 4096
block_size 64
max_read_per_cycle 20
max_fill_per_cycle 20
dram_channels 1
dram_ranks 1
dram_banks 8
dram_rows 65536
dram_columns 128
dram_row_size 8
dram_size 4096
dram_pages 1048576

fetch_width 20
decode_width 20
exec_width 20
lq_width 20
sq_width 20
retire_width 20
scheduler_size 128
branch_mispredict_penalty 20
rob_size 256
lq_size 72
sq_size 56
num_instr_destinations_sparc 4
num_instr_destinations 2
num_instr_sources 4

itlb_set 16
itlb_way 8
itlb_rq_size 16
itlb_wq_size 16
itlb_pq_size 0
itlb_mshr_size 8
itlb_latency 1

dtlb_set 16
dtlb_way 4
dtlb_rq_size 16
dtlb_wq_size 16
dtlb_pq_size 0
dtlb_mshr_size 8
dtlb_latency 1

stlb_set 128
stlb_way 12
stlb_rq_size 32
stlb_wq_size 32
stlb_pq_size 0
stlb_mshr_size 16
stlb_latency 8

l1i_size 32
l1i_set 64
l1i_way 8
l1i_rq_size 64
l1i_wq_size 64
l1i_pq_size 8
l1i_mshr_size 8
l1i_latency 1

l1d_size 32
l1d_set 64
l1d_way 8
l1d_rq_size 64
l1d_wq_size 64
l1d_pq_size 8
l1d_mshr_size 16
l1d_latency 4

l2c_size 256
l2c_set 512
l2c_way 8
l2c_rq_size 32
l2c_wq_size 32
l2c_pq_size 16
l2c_mshr_size 32
l2c_latency 10

llc_size 2048
llc_set 2048
llc_way 16
llc_rq_size 32
llc_wq_size 32
llc_pq_size 32
llc_mshr_size 64
llc_latency 20

dram_channel_width 8
dram_wq_size 64
dram_rq_size 64
tRP 15
tRCD 15
tCAS 12.5
dram_dbus_turn_around_time 30
dram_write_high_wm 56
dram_write_low_wm 48
min_dram_writes_per_switch 16
dram_mtps 2400
dram_dbus_return_time 13


Heartbeat CPU  0 instructions:    1000002 cycles:     688764 heartbeat IPC: 1.45188 cumulative IPC: 1.45188 (Simulation time: 0 hr 0 min 2 sec) 
Heartbeat CPU  0 instructions:    2000003 cycles:    1321555 heartbeat IPC: 1.58030 cumulative IPC: 1.51337 (Simulation time: 0 hr 0 min 3 sec) 
Heartbeat CPU  0 instructions:    3000013 cycles:    1942804 heartbeat IPC: 1.60968 cumulative IPC: 1.54417 (Simulation time: 0 hr 0 min 4 sec) 
Heartbeat CPU  0 instructions:    4000000 cycles:    2542055 heartbeat IPC: 1.66873 cumulative IPC: 1.57353 (Simulation time: 0 hr 0 min 6 sec) 
Heartbeat CPU  0 instructions:    5000000 cycles:    3138290 heartbeat IPC: 1.67719 cumulative IPC: 1.59322 (Simulation time: 0 hr 0 min 7 sec) 
Heartbeat CPU  0 instructions:    6000004 cycles:    3694439 heartbeat IPC: 1.79809 cumulative IPC: 1.62406 (Simulation time: 0 hr 0 min 8 sec) 
Heartbeat CPU  0 instructions:    7000002 cycles:    4250227 heartbeat IPC: 1.79924 cumulative IPC: 1.64697 (Simulation time: 0 hr 0 min 10 sec) 
Heartbeat CPU  0 instructions:    8000000 cycles:    4810471 heartbeat IPC: 1.78493 cumulative IPC: 1.66304 (Simulation time: 0 hr 0 min 11 sec) 
Heartbeat CPU  0 instructions:    9000000 cycles:    5389006 heartbeat IPC: 1.72850 cumulative IPC: 1.67007 (Simulation time: 0 hr 0 min 13 sec) 
Heartbeat CPU  0 instructions:   10000014 cycles:    6059028 heartbeat IPC: 1.49251 cumulative IPC: 1.65043 (Simulation time: 0 hr 0 min 14 sec) 

Warmup complete CPU  0 instructions:   10000014 cycles:    6059028 (Simulation time: 0 hr 0 min 14 sec) 

Heartbeat CPU  0 instructions:   11000011 cycles:   11010590 heartbeat IPC: 0.20196 cumulative IPC: 0.20196 (Simulation time: 0 hr 0 min 18 sec) 
Heartbeat CPU  0 instructions:   12000000 cycles:   15543804 heartbeat IPC: 0.22059 cumulative IPC: 0.21086 (Simulation time: 0 hr 0 min 22 sec) 
Heartbeat CPU  0 instructions:   13000000 cycles:   19837932 heartbeat IPC: 0.23288 cumulative IPC: 0.21772 (Simulation time: 0 hr 0 min 25 sec) 
Heartbeat CPU  0 instructions:   14000010 cycles:   24183659 heartbeat IPC: 0.23011 cumulative IPC: 0.22069 (Simulation time: 0 hr 0 min 29 sec) 
Heartbeat CPU  0 instructions:   15000003 cycles:   28381738 heartbeat IPC: 0.23820 cumulative IPC: 0.22399 (Simulation time: 0 hr 0 min 32 sec) 
Heartbeat CPU  0 instructions:   16000000 cycles:   32638765 heartbeat IPC: 0.23491 cumulative IPC: 0.22574 (Simulation time: 0 hr 0 min 35 sec) 
Heartbeat CPU  0 instructions:   17000000 cycles:   36695977 heartbeat IPC: 0.24647 cumulative IPC: 0.22848 (Simulation time: 0 hr 0 min 38 sec) 
Heartbeat CPU  0 instructions:   18000015 cycles:   40687388 heartbeat IPC: 0.25054 cumulative IPC: 0.23102 (Simulation time: 0 hr 0 min 42 sec) 
Heartbeat CPU  0 instructions:   19000007 cycles:   44729799 heartbeat IPC: 0.24738 cumulative IPC: 0.23273 (Simulation time: 0 hr 0 min 45 sec) 
Heartbeat CPU  0 instructions:   20000000 cycles:   48619187 heartbeat IPC: 0.25711 cumulative IPC: 0.23496 (Simulation time: 0 hr 0 min 48 sec) 
Heartbeat CPU  0 instructions:   21000003 cycles:   52642978 heartbeat IPC: 0.24852 cumulative IPC: 0.23613 (Simulation time: 0 hr 0 min 51 sec) 
Heartbeat CPU  0 instructions:   22000000 cycles:   56404873 heartbeat IPC: 0.26582 cumulative IPC: 0.23835 (Simulation time: 0 hr 0 min 54 sec) 
Heartbeat CPU  0 instructions:   23000004 cycles:   60186949 heartbeat IPC: 0.26441 cumulative IPC: 0.24017 (Simulation time: 0 hr 0 min 58 sec) 
Heartbeat CPU  0 instructions:   24000000 cycles:   63588857 heartbeat IPC: 0.29395 cumulative IPC: 0.24335 (Simulation time: 0 hr 1 min 1 sec) 
Heartbeat CPU  0 instructions:   25000003 cycles:   66636171 heartbeat IPC: 0.32816 cumulative IPC: 0.24762 (Simulation time: 0 hr 1 min 3 sec) 
Heartbeat CPU  0 instructions:   26000004 cycles:   69520293 heartbeat IPC: 0.34673 cumulative IPC: 0.25212 (Simulation time: 0 hr 1 min 6 sec) 
Heartbeat CPU  0 instructions:   27000000 cycles:   72163795 heartbeat IPC: 0.37828 cumulative IPC: 0.25717 (Simulation time: 0 hr 1 min 10 sec) 
Heartbeat CPU  0 instructions:   28000000 cycles:   77283542 heartbeat IPC: 0.19532 cumulative IPC: 0.25272 (Simulation time: 0 hr 1 min 16 sec) 
Heartbeat CPU  0 instructions:   29000000 cycles:   82403490 heartbeat IPC: 0.19531 cumulative IPC: 0.24887 (Simulation time: 0 hr 1 min 23 sec) 
Heartbeat CPU  0 instructions:   30000000 cycles:   87523482 heartbeat IPC: 0.19531 cumulative IPC: 0.24551 (Simulation time: 0 hr 1 min 30 sec) 
Heartbeat CPU  0 instructions:   31000002 cycles:   92642813 heartbeat IPC: 0.19534 cumulative IPC: 0.24254 (Simulation time: 0 hr 1 min 36 sec) 
Heartbeat CPU  0 instructions:   32000000 cycles:   97762300 heartbeat IPC: 0.19533 cumulative IPC: 0.23990 (Simulation time: 0 hr 1 min 43 sec) 
Heartbeat CPU  0 instructions:   33000000 cycles:  102881734 heartbeat IPC: 0.19533 cumulative IPC: 0.23755 (Simulation time: 0 hr 1 min 49 sec) 
Heartbeat CPU  0 instructions:   34000000 cycles:  108000249 heartbeat IPC: 0.19537 cumulative IPC: 0.23543 (Simulation time: 0 hr 1 min 56 sec) 
Heartbeat CPU  0 instructions:   35000000 cycles:  113119194 heartbeat IPC: 0.19535 cumulative IPC: 0.23351 (Simulation time: 0 hr 2 min 3 sec) 
Heartbeat CPU  0 instructions:   36000000 cycles:  118238264 heartbeat IPC: 0.19535 cumulative IPC: 0.23177 (Simulation time: 0 hr 2 min 9 sec) 
Heartbeat CPU  0 instructions:   37000001 cycles:  123182904 heartbeat IPC: 0.20224 cumulative IPC: 0.23053 (Simulation time: 0 hr 2 min 16 sec) 
Heartbeat CPU  0 instructions:   38000002 cycles:  126395766 heartbeat IPC: 0.31125 cumulative IPC: 0.23268 (Simulation time: 0 hr 2 min 19 sec) 
Heartbeat CPU  0 instructions:   39000013 cycles:  129533545 heartbeat IPC: 0.31870 cumulative IPC: 0.23487 (Simulation time: 0 hr 2 min 22 sec) 
Heartbeat CPU  0 instructions:   40000000 cycles:  132730573 heartbeat IPC: 0.31279 cumulative IPC: 0.23683 (Simulation time: 0 hr 2 min 25 sec) 
Heartbeat CPU  0 instructions:   41000000 cycles:  135800894 heartbeat IPC: 0.32570 cumulative IPC: 0.23894 (Simulation time: 0 hr 2 min 28 sec) 
Heartbeat CPU  0 instructions:   42000008 cycles:  138860163 heartbeat IPC: 0.32688 cumulative IPC: 0.24096 (Simulation time: 0 hr 2 min 31 sec) 
Heartbeat CPU  0 instructions:   43000013 cycles:  141804561 heartbeat IPC: 0.33963 cumulative IPC: 0.24310 (Simulation time: 0 hr 2 min 33 sec) 
Heartbeat CPU  0 instructions:   44000000 cycles:  144764243 heartbeat IPC: 0.33787 cumulative IPC: 0.24512 (Simulation time: 0 hr 2 min 36 sec) 
Heartbeat CPU  0 instructions:   45000009 cycles:  147612204 heartbeat IPC: 0.35113 cumulative IPC: 0.24726 (Simulation time: 0 hr 2 min 39 sec) 
Heartbeat CPU  0 instructions:   46000011 cycles:  150603689 heartbeat IPC: 0.33428 cumulative IPC: 0.24906 (Simulation time: 0 hr 2 min 42 sec) 
Heartbeat CPU  0 instructions:   47000001 cycles:  153570273 heartbeat IPC: 0.33708 cumulative IPC: 0.25083 (Simulation time: 0 hr 2 min 45 sec) 
Heartbeat CPU  0 instructions:   48000000 cycles:  156496920 heartbeat IPC: 0.34169 cumulative IPC: 0.25260 (Simulation time: 0 hr 2 min 48 sec) 
Heartbeat CPU  0 instructions:   49000004 cycles:  159457961 heartbeat IPC: 0.33772 cumulative IPC: 0.25424 (Simulation time: 0 hr 2 min 51 sec) 
Heartbeat CPU  0 instructions:   50000001 cycles:  162421136 heartbeat IPC: 0.33747 cumulative IPC: 0.25582 (Simulation time: 0 hr 2 min 54 sec) 
Heartbeat CPU  0 instructions:   51000000 cycles:  165379168 heartbeat IPC: 0.33806 cumulative IPC: 0.25734 (Simulation time: 0 hr 2 min 56 sec) 
Heartbeat CPU  0 instructions:   52000000 cycles:  168242781 heartbeat IPC: 0.34921 cumulative IPC: 0.25897 (Simulation time: 0 hr 2 min 59 sec) 
Heartbeat CPU  0 instructions:   53000001 cycles:  171250141 heartbeat IPC: 0.33252 cumulative IPC: 0.26030 (Simulation time: 0 hr 3 min 2 sec) 
Heartbeat CPU  0 instructions:   54000001 cycles:  174228404 heartbeat IPC: 0.33577 cumulative IPC: 0.26164 (Simulation time: 0 hr 3 min 5 sec) 
Heartbeat CPU  0 instructions:   55000000 cycles:  177204646 heartbeat IPC: 0.33599 cumulative IPC: 0.26293 (Simulation time: 0 hr 3 min 8 sec) 
Heartbeat CPU  0 instructions:   56000000 cycles:  180157208 heartbeat IPC: 0.33869 cumulative IPC: 0.26422 (Simulation time: 0 hr 3 min 11 sec) 
Heartbeat CPU  0 instructions:   57000002 cycles:  183072499 heartbeat IPC: 0.34302 cumulative IPC: 0.26552 (Simulation time: 0 hr 3 min 14 sec) 
Heartbeat CPU  0 instructions:   58000007 cycles:  186057951 heartbeat IPC: 0.33496 cumulative IPC: 0.26667 (Simulation time: 0 hr 3 min 17 sec) 
Heartbeat CPU  0 instructions:   59000000 cycles:  188926996 heartbeat IPC: 0.34855 cumulative IPC: 0.26795 (Simulation time: 0 hr 3 min 20 sec) 
Heartbeat CPU  0 instructions:   60000000 cycles:  191923440 heartbeat IPC: 0.33373 cumulative IPC: 0.26901 (Simulation time: 0 hr 3 min 22 sec) 
Finished CPU 0 instructions: 50000011 cycles: 185864453 cumulative IPC: 0.26901 (Simulation time: 0 hr 3 min 22 sec) 

ChampSim completed all CPUs

[ROI Statistics]
Core_0_instructions 50000011
Core_0_cycles 185864453
Core_0_IPC 0.26901

Core_0_branch_prediction_accuracy 96.67352
Core_0_branch_MPKI 5.78708
Core_0_average_ROB_occupancy_at_mispredict 116.14444

Core_0_L1D_total_access 13554339
Core_0_L1D_total_hit 12044107
Core_0_L1D_total_miss_isca 1510232
Core_0_L1D_total_overlap_miss 0
Core_0_L1D_loads 7716476
Core_0_L1D_load_hit 7145844
Core_0_L1D_load_miss 570632
Core_0_L1D_RFOs 5837863
Core_0_L1D_RFO_hit 4898263
Core_0_L1D_RFO_miss 939600
Core_0_L1D_prefetches 0
Core_0_L1D_prefetch_hit 0
Core_0_L1D_prefetch_miss 0
Core_0_L1D_writebacks 0
Core_0_L1D_writeback_hit 0
Core_0_L1D_writeback_miss 0
Core_0_L1D_miss_rate 0.11142
Core_0_L1D_MPKI 30.20464
Core_0_L1D_demand_miss 1510232
Core_0_L1D_prefetch_requested 0
Core_0_L1D_prefetch_issued 0
Core_0_L1D_prefetch_useful 0
Core_0_L1D_prefetch_useless 0
Core_0_L1D_prefetch_late 0
Core_0_L1D_average_miss_latency 1200.62354

Replacement_count: 0
Bypassing_count: 0
Core_0_L1I_total_access 10894214
Core_0_L1I_total_hit 10892475
Core_0_L1I_total_miss_isca 1739
Core_0_L1I_total_overlap_miss 0
Core_0_L1I_loads 10894214
Core_0_L1I_load_hit 10892475
Core_0_L1I_load_miss 1739
Core_0_L1I_RFOs 0
Core_0_L1I_RFO_hit 0
Core_0_L1I_RFO_miss 0
Core_0_L1I_prefetches 0
Core_0_L1I_prefetch_hit 0
Core_0_L1I_prefetch_miss 0
Core_0_L1I_writebacks 0
Core_0_L1I_writeback_hit 0
Core_0_L1I_writeback_miss 0
Core_0_L1I_miss_rate 0.00016
Core_0_L1I_MPKI 0.03478
Core_0_L1I_demand_miss 1739
Core_0_L1I_prefetch_requested 0
Core_0_L1I_prefetch_issued 0
Core_0_L1I_prefetch_useful 0
Core_0_L1I_prefetch_useless 0
Core_0_L1I_prefetch_late 0
Core_0_L1I_average_miss_latency 174.25072

Replacement_count: 0
Bypassing_count: 0
Core_0_L2C_total_access 2497157
Core_0_L2C_total_hit 1152594
Core_0_L2C_total_miss_isca 1344563
Core_0_L2C_total_overlap_miss 0
Core_0_L2C_loads 572369
Core_0_L2C_load_hit 165380
Core_0_L2C_load_miss 406989
Core_0_L2C_RFOs 939597
Core_0_L2C_RFO_hit 2371
Core_0_L2C_RFO_miss 937226
Core_0_L2C_prefetches 0
Core_0_L2C_prefetch_hit 0
Core_0_L2C_prefetch_miss 0
Core_0_L2C_writebacks 985191
Core_0_L2C_writeback_hit 984843
Core_0_L2C_writeback_miss 348
Core_0_L2C_miss_rate 0.53844
Core_0_L2C_MPKI 26.89126
Core_0_L2C_demand_miss 1344563
Core_0_L2C_prefetch_requested 0
Core_0_L2C_prefetch_issued 0
Core_0_L2C_prefetch_useful 0
Core_0_L2C_prefetch_useless 0
Core_0_L2C_prefetch_late 0
Core_0_L2C_average_miss_latency 1314.93294

Replacement_count: 0
Bypassing_count: 0
Core_0_LLC_total_access 2319152
Core_0_LLC_total_hit 1041677
Core_0_LLC_total_miss_isca 1277475
Core_0_LLC_total_overlap_miss 0
Core_0_LLC_loads 406989
Core_0_LLC_load_hit 66528
Core_0_LLC_load_miss 340461
Core_0_LLC_RFOs 937226
Core_0_LLC_RFO_hit 380
Core_0_LLC_RFO_miss 936846
Core_0_LLC_prefetches 0
Core_0_LLC_prefetch_hit 0
Core_0_LLC_prefetch_miss 0
Core_0_LLC_writebacks 974937
Core_0_LLC_writeback_hit 974769
Core_0_LLC_writeback_miss 168
Core_0_LLC_miss_rate 0.55084
Core_0_LLC_MPKI 25.54950
Core_0_LLC_demand_miss 1277475
Core_0_LLC_prefetch_requested 0
Core_0_LLC_prefetch_issued 0
Core_0_LLC_prefetch_useful 0
Core_0_LLC_prefetch_useless 0
Core_0_LLC_prefetch_late 0
Core_0_LLC_average_miss_latency 1315.52792

Replacement_count: 0
Bypassing_count: 0
Core_0_major_page_fault 0
Core_0_minor_page_fault 25218


demand_hit_count: 66908
presuse_distance_0_count: 0
presuse_distance_1_count: 2913
presuse_distance_2_count: 9259
presuse_distance_3_count: 14101
presuse_distance_4_count: 13461
presuse_distance_5_count: 9607
presuse_distance_6_count: 5883
presuse_distance_7_count: 3408
presuse_distance_8_count: 2114
presuse_distance_9_count: 1319
presuse_distance_10_count: 967
presuse_distance_11_count: 689
presuse_distance_12_count: 609
presuse_distance_13_count: 564
presuse_distance_14_count: 473
presuse_distance_15_count: 430
presuse_distance_16_count: 519
presuse_distance_17_count: 153
presuse_distance_18_count: 87
presuse_distance_19_count: 74
presuse_distance_20_count: 53
presuse_distance_21_count: 32
presuse_distance_22_count: 29
presuse_distance_23_count: 16
presuse_distance_24_count: 31
presuse_distance_25_count: 17
presuse_distance_26_count: 16
presuse_distance_27_count: 9
presuse_distance_28_count: 9
presuse_distance_29_count: 8
presuse_distance_30_count: 5
presuse_distance_31_count: 4
presuse_distance_32_count: 7
presuse_distance_33_count: 3
presuse_distance_34_count: 6
presuse_distance_35_count: 5
presuse_distance_36_count: 9
presuse_distance_37_count: 2
presuse_distance_38_count: 5
presuse_distance_39_count: 3
presuse_distance_40_count: 0
presuse_distance_41_count: 1
presuse_distance_42_count: 3
presuse_distance_43_count: 1
presuse_distance_44_count: 0
presuse_distance_45_count: 0
presuse_distance_46_count: 1
presuse_distance_47_count: 1
presuse_distance_48_count: 0
presuse_distance_49_count: 2
presuse_distance_50_count: 0
presuse_distance_51_count: 0
presuse_distance_52_count: 0
presuse_distance_53_count: 0
presuse_distance_54_count: 0
presuse_distance_55_count: 0
presuse_distance_56_count: 0
presuse_distance_57_count: 0
presuse_distance_58_count: 0
presuse_distance_59_count: 0
presuse_distance_60_count: 0
presuse_distance_61_count: 0
presuse_distance_62_count: 0
presuse_distance_63_count: 0
presuse_distance_64_count: 0
presuse_distance_larger_than_64_count: 0
Channel_0_RQ_row_buffer_hit 326946
Channel_0_RQ_row_buffer_miss 950361
Channel_0_WQ_row_buffer_hit 197284
Channel_0_WQ_row_buffer_miss 767922
Channel_0_WQ_full 0
Channel_0_dbus_congested 1780228

avg_congested_cycle 11

DRAM_bw_pochs 0
DRAM_bw_level_0 0
DRAM_bw_level_1 0
DRAM_bw_level_2 0
DRAM_bw_level_3 0
LLC_cal_level_0 4837
LLC_cal_level_1 132
LLC_cal_level_2 0
LLC_cal_level_3 0
*************************************************
   ChampSim Multicore Out-of-Order Simulator
   Last compiled: Aug 25 2022 21:58:01
*************************************************
 DRAM access latency: 170
Off-chip DRAM Size: 4096 MB Channels: 1 Width: 64-bit Data Rate: 2400 MT/s
 DRAM_DBUS_RETURN_TIME: 13

trace_0 /home/cc/champsim/traces/410.bwaves-2097B.champsimtrace.xz
Initialize PREUSE state
llc_initialize_replacement complete 
warmup_instructions 10000000
simulation_instructions 50000000
champsim_seed 276

num_cpus 1
cpu_freq 4000
dram_io_freq 2400
page_size 4096
block_size 64
max_read_per_cycle 20
max_fill_per_cycle 20
dram_channels 1
dram_ranks 1
dram_banks 8
dram_rows 65536
dram_columns 128
dram_row_size 8
dram_size 4096
dram_pages 1048576

fetch_width 20
decode_width 20
exec_width 20
lq_width 20
sq_width 20
retire_width 20
scheduler_size 128
branch_mispredict_penalty 20
rob_size 256
lq_size 72
sq_size 56
num_instr_destinations_sparc 4
num_instr_destinations 2
num_instr_sources 4

itlb_set 16
itlb_way 8
itlb_rq_size 16
itlb_wq_size 16
itlb_pq_size 0
itlb_mshr_size 8
itlb_latency 1

dtlb_set 16
dtlb_way 4
dtlb_rq_size 16
dtlb_wq_size 16
dtlb_pq_size 0
dtlb_mshr_size 8
dtlb_latency 1

stlb_set 128
stlb_way 12
stlb_rq_size 32
stlb_wq_size 32
stlb_pq_size 0
stlb_mshr_size 16
stlb_latency 8

l1i_size 32
l1i_set 64
l1i_way 8
l1i_rq_size 64
l1i_wq_size 64
l1i_pq_size 8
l1i_mshr_size 8
l1i_latency 1

l1d_size 32
l1d_set 64
l1d_way 8
l1d_rq_size 64
l1d_wq_size 64
l1d_pq_size 8
l1d_mshr_size 16
l1d_latency 4

l2c_size 256
l2c_set 512
l2c_way 8
l2c_rq_size 32
l2c_wq_size 32
l2c_pq_size 16
l2c_mshr_size 32
l2c_latency 10

llc_size 2048
llc_set 2048
llc_way 16
llc_rq_size 32
llc_wq_size 32
llc_pq_size 32
llc_mshr_size 64
llc_latency 20

dram_channel_width 8
dram_wq_size 64
dram_rq_size 64
tRP 15
tRCD 15
tCAS 12.5
dram_dbus_turn_around_time 30
dram_write_high_wm 56
dram_write_low_wm 48
min_dram_writes_per_switch 16
dram_mtps 2400
dram_dbus_return_time 13


Heartbeat CPU  0 instructions:    1000016 cycles:     481685 heartbeat IPC: 2.07608 cumulative IPC: 2.07608 (Simulation time: 0 hr 0 min 1 sec) 
Heartbeat CPU  0 instructions:    2000002 cycles:     962984 heartbeat IPC: 2.07768 cumulative IPC: 2.07688 (Simulation time: 0 hr 0 min 3 sec) 
Heartbeat CPU  0 instructions:    3000002 cycles:    1444166 heartbeat IPC: 2.07822 cumulative IPC: 2.07732 (Simulation time: 0 hr 0 min 5 sec) 
Heartbeat CPU  0 instructions:    4000000 cycles:    1925607 heartbeat IPC: 2.07709 cumulative IPC: 2.07727 (Simulation time: 0 hr 0 min 7 sec) 
Heartbeat CPU  0 instructions:    5000001 cycles:    2406851 heartbeat IPC: 2.07795 cumulative IPC: 2.07740 (Simulation time: 0 hr 0 min 9 sec) 
Heartbeat CPU  0 instructions:    6000002 cycles:    2887986 heartbeat IPC: 2.07842 cumulative IPC: 2.07757 (Simulation time: 0 hr 0 min 10 sec) 
Heartbeat CPU  0 instructions:    7000009 cycles:    3369051 heartbeat IPC: 2.07874 cumulative IPC: 2.07774 (Simulation time: 0 hr 0 min 12 sec) 
Heartbeat CPU  0 instructions:    8000000 cycles:    3850199 heartbeat IPC: 2.07834 cumulative IPC: 2.07781 (Simulation time: 0 hr 0 min 14 sec) 
Heartbeat CPU  0 instructions:    9000003 cycles:    4331425 heartbeat IPC: 2.07803 cumulative IPC: 2.07784 (Simulation time: 0 hr 0 min 16 sec) 
Heartbeat CPU  0 instructions:   10000002 cycles:    4812694 heartbeat IPC: 2.07784 cumulative IPC: 2.07784 (Simulation time: 0 hr 0 min 18 sec) 

Warmup complete CPU  0 instructions:   10000002 cycles:    4812694 (Simulation time: 0 hr 0 min 18 sec) 

Heartbeat CPU  0 instructions:   11000001 cycles:    6338546 heartbeat IPC: 0.65537 cumulative IPC: 0.65537 (Simulation time: 0 hr 0 min 21 sec) 
Heartbeat CPU  0 instructions:   12000000 cycles:    7848794 heartbeat IPC: 0.66214 cumulative IPC: 0.65874 (Simulation time: 0 hr 0 min 23 sec) 
Heartbeat CPU  0 instructions:   13000001 cycles:    9379590 heartbeat IPC: 0.65326 cumulative IPC: 0.65690 (Simulation time: 0 hr 0 min 26 sec) 
Heartbeat CPU  0 instructions:   14000003 cycles:   10881598 heartbeat IPC: 0.66578 cumulative IPC: 0.65910 (Simulation time: 0 hr 0 min 29 sec) 
Heartbeat CPU  0 instructions:   15000002 cycles:   12399467 heartbeat IPC: 0.65882 cumulative IPC: 0.65904 (Simulation time: 0 hr 0 min 32 sec) 
Heartbeat CPU  0 instructions:   16000000 cycles:   13907543 heartbeat IPC: 0.66310 cumulative IPC: 0.65971 (Simulation time: 0 hr 0 min 35 sec) 
Heartbeat CPU  0 instructions:   17000008 cycles:   15415174 heartbeat IPC: 0.66330 cumulative IPC: 0.66022 (Simulation time: 0 hr 0 min 38 sec) 
Heartbeat CPU  0 instructions:   18000001 cycles:   16933263 heartbeat IPC: 0.65872 cumulative IPC: 0.66003 (Simulation time: 0 hr 0 min 41 sec) 
Heartbeat CPU  0 instructions:   19000002 cycles:   18450273 heartbeat IPC: 0.65919 cumulative IPC: 0.65994 (Simulation time: 0 hr 0 min 44 sec) 
Heartbeat CPU  0 instructions:   20000000 cycles:   20028774 heartbeat IPC: 0.63351 cumulative IPC: 0.65720 (Simulation time: 0 hr 0 min 47 sec) 
Heartbeat CPU  0 instructions:   21000003 cycles:   21560643 heartbeat IPC: 0.65280 cumulative IPC: 0.65680 (Simulation time: 0 hr 0 min 49 sec) 
Heartbeat CPU  0 instructions:   22000001 cycles:   23058055 heartbeat IPC: 0.66782 cumulative IPC: 0.65770 (Simulation time: 0 hr 0 min 52 sec) 
Heartbeat CPU  0 instructions:   23000019 cycles:   24580688 heartbeat IPC: 0.65677 cumulative IPC: 0.65763 (Simulation time: 0 hr 0 min 55 sec) 
Heartbeat CPU  0 instructions:   24000000 cycles:   26076393 heartbeat IPC: 0.66857 cumulative IPC: 0.65840 (Simulation time: 0 hr 0 min 58 sec) 
Heartbeat CPU  0 instructions:   25000001 cycles:   27591819 heartbeat IPC: 0.65988 cumulative IPC: 0.65850 (Simulation time: 0 hr 1 min 1 sec) 
Heartbeat CPU  0 instructions:   26000013 cycles:   29096155 heartbeat IPC: 0.66475 cumulative IPC: 0.65889 (Simulation time: 0 hr 1 min 4 sec) 
Heartbeat CPU  0 instructions:   27000001 cycles:   30600349 heartbeat IPC: 0.66480 cumulative IPC: 0.65923 (Simulation time: 0 hr 1 min 7 sec) 
Heartbeat CPU  0 instructions:   28000000 cycles:   32116293 heartbeat IPC: 0.65965 cumulative IPC: 0.65925 (Simulation time: 0 hr 1 min 10 sec) 
Heartbeat CPU  0 instructions:   29000000 cycles:   33634078 heartbeat IPC: 0.65885 cumulative IPC: 0.65923 (Simulation time: 0 hr 1 min 12 sec) 
Heartbeat CPU  0 instructions:   30000008 cycles:   35135016 heartbeat IPC: 0.66626 cumulative IPC: 0.65958 (Simulation time: 0 hr 1 min 15 sec) 
Heartbeat CPU  0 instructions:   31000001 cycles:   36710362 heartbeat IPC: 0.63478 cumulative IPC: 0.65836 (Simulation time: 0 hr 1 min 18 sec) 
Heartbeat CPU  0 instructions:   32000000 cycles:   38217806 heartbeat IPC: 0.66337 cumulative IPC: 0.65858 (Simulation time: 0 hr 1 min 21 sec) 
Heartbeat CPU  0 instructions:   33000002 cycles:   39724922 heartbeat IPC: 0.66352 cumulative IPC: 0.65879 (Simulation time: 0 hr 1 min 24 sec) 
Heartbeat CPU  0 instructions:   34000012 cycles:   41247685 heartbeat IPC: 0.65671 cumulative IPC: 0.65871 (Simulation time: 0 hr 1 min 27 sec) 
Heartbeat CPU  0 instructions:   35000000 cycles:   42743721 heartbeat IPC: 0.66843 cumulative IPC: 0.65909 (Simulation time: 0 hr 1 min 30 sec) 
Heartbeat CPU  0 instructions:   36000000 cycles:   44274226 heartbeat IPC: 0.65338 cumulative IPC: 0.65887 (Simulation time: 0 hr 1 min 33 sec) 
Heartbeat CPU  0 instructions:   37000002 cycles:   45813457 heartbeat IPC: 0.64968 cumulative IPC: 0.65852 (Simulation time: 0 hr 1 min 35 sec) 
Heartbeat CPU  0 instructions:   38000001 cycles:   47346729 heartbeat IPC: 0.65220 cumulative IPC: 0.65830 (Simulation time: 0 hr 1 min 38 sec) 
Heartbeat CPU  0 instructions:   39000002 cycles:   48849737 heartbeat IPC: 0.66533 cumulative IPC: 0.65854 (Simulation time: 0 hr 1 min 41 sec) 
Heartbeat CPU  0 instructions:   40000000 cycles:   50388606 heartbeat IPC: 0.64983 cumulative IPC: 0.65824 (Simulation time: 0 hr 1 min 44 sec) 
Heartbeat CPU  0 instructions:   41000000 cycles:   51901159 heartbeat IPC: 0.66113 cumulative IPC: 0.65834 (Simulation time: 0 hr 1 min 47 sec) 
Heartbeat CPU  0 instructions:   42000001 cycles:   53402685 heartbeat IPC: 0.66599 cumulative IPC: 0.65857 (Simulation time: 0 hr 1 min 50 sec) 
Heartbeat CPU  0 instructions:   43000001 cycles:   54911229 heartbeat IPC: 0.66289 cumulative IPC: 0.65870 (Simulation time: 0 hr 1 min 53 sec) 
Heartbeat CPU  0 instructions:   44000000 cycles:   56431961 heartbeat IPC: 0.65758 cumulative IPC: 0.65867 (Simulation time: 0 hr 1 min 56 sec) 
Heartbeat CPU  0 instructions:   45000000 cycles:   57934873 heartbeat IPC: 0.66537 cumulative IPC: 0.65886 (Simulation time: 0 hr 1 min 58 sec) 
Heartbeat CPU  0 instructions:   46000000 cycles:   59464069 heartbeat IPC: 0.65394 cumulative IPC: 0.65872 (Simulation time: 0 hr 2 min 1 sec) 
Heartbeat CPU  0 instructions:   47000001 cycles:   60969489 heartbeat IPC: 0.66427 cumulative IPC: 0.65887 (Simulation time: 0 hr 2 min 4 sec) 
Heartbeat CPU  0 instructions:   48000000 cycles:   62484517 heartbeat IPC: 0.66005 cumulative IPC: 0.65890 (Simulation time: 0 hr 2 min 7 sec) 
Heartbeat CPU  0 instructions:   49000006 cycles:   64003545 heartbeat IPC: 0.65832 cumulative IPC: 0.65889 (Simulation time: 0 hr 2 min 10 sec) 
Heartbeat CPU  0 instructions:   50000000 cycles:   65506670 heartbeat IPC: 0.66528 cumulative IPC: 0.65904 (Simulation time: 0 hr 2 min 13 sec) 
Heartbeat CPU  0 instructions:   51000006 cycles:   67036411 heartbeat IPC: 0.65371 cumulative IPC: 0.65891 (Simulation time: 0 hr 2 min 16 sec) 
Heartbeat CPU  0 instructions:   52000000 cycles:   68555808 heartbeat IPC: 0.65815 cumulative IPC: 0.65889 (Simulation time: 0 hr 2 min 19 sec) 
Heartbeat CPU  0 instructions:   53000000 cycles:   70067157 heartbeat IPC: 0.66166 cumulative IPC: 0.65896 (Simulation time: 0 hr 2 min 22 sec) 
Heartbeat CPU  0 instructions:   54000000 cycles:   71573113 heartbeat IPC: 0.66403 cumulative IPC: 0.65907 (Simulation time: 0 hr 2 min 24 sec) 
Heartbeat CPU  0 instructions:   55000004 cycles:   73093135 heartbeat IPC: 0.65789 cumulative IPC: 0.65905 (Simulation time: 0 hr 2 min 27 sec) 
Heartbeat CPU  0 instructions:   56000000 cycles:   74587025 heartbeat IPC: 0.66939 cumulative IPC: 0.65927 (Simulation time: 0 hr 2 min 30 sec) 
Heartbeat CPU  0 instructions:   57000004 cycles:   76099697 heartbeat IPC: 0.66108 cumulative IPC: 0.65931 (Simulation time: 0 hr 2 min 33 sec) 
Heartbeat CPU  0 instructions:   58000003 cycles:   77629384 heartbeat IPC: 0.65373 cumulative IPC: 0.65919 (Simulation time: 0 hr 2 min 36 sec) 
Heartbeat CPU  0 instructions:   59000000 cycles:   79136328 heartbeat IPC: 0.66359 cumulative IPC: 0.65928 (Simulation time: 0 hr 2 min 39 sec) 
Heartbeat CPU  0 instructions:   60000000 cycles:   80634833 heartbeat IPC: 0.66733 cumulative IPC: 0.65944 (Simulation time: 0 hr 2 min 42 sec) 
Finished CPU 0 instructions: 50000000 cycles: 75822153 cumulative IPC: 0.65944 (Simulation time: 0 hr 2 min 42 sec) 

ChampSim completed all CPUs

[ROI Statistics]
Core_0_instructions 50000000
Core_0_cycles 75822153
Core_0_IPC 0.65944

Core_0_branch_prediction_accuracy 97.25741
Core_0_branch_MPKI 0.76462
Core_0_average_ROB_occupancy_at_mispredict 252.68866

Core_0_L1D_total_access 23662658
Core_0_L1D_total_hit 22660535
Core_0_L1D_total_miss_isca 1002123
Core_0_L1D_total_overlap_miss 0
Core_0_L1D_loads 19935540
Core_0_L1D_load_hit 18959609
Core_0_L1D_load_miss 975931
Core_0_L1D_RFOs 3727118
Core_0_L1D_RFO_hit 3700926
Core_0_L1D_RFO_miss 26192
Core_0_L1D_prefetches 0
Core_0_L1D_prefetch_hit 0
Core_0_L1D_prefetch_miss 0
Core_0_L1D_writebacks 0
Core_0_L1D_writeback_hit 0
Core_0_L1D_writeback_miss 0
Core_0_L1D_miss_rate 0.04235
Core_0_L1D_MPKI 20.04246
Core_0_L1D_demand_miss 1002123
Core_0_L1D_prefetch_requested 0
Core_0_L1D_prefetch_issued 0
Core_0_L1D_prefetch_useful 0
Core_0_L1D_prefetch_useless 0
Core_0_L1D_prefetch_late 0
Core_0_L1D_average_miss_latency 603.17632

Replacement_count: 0
Bypassing_count: 0
Core_0_L1I_total_access 10271788
Core_0_L1I_total_hit 10271788
Core_0_L1I_total_miss_isca 0
Core_0_L1I_total_overlap_miss 0
Core_0_L1I_loads 10271788
Core_0_L1I_load_hit 10271788
Core_0_L1I_load_miss 0
Core_0_L1I_RFOs 0
Core_0_L1I_RFO_hit 0
Core_0_L1I_RFO_miss 0
Core_0_L1I_prefetches 0
Core_0_L1I_prefetch_hit 0
Core_0_L1I_prefetch_miss 0
Core_0_L1I_writebacks 0
Core_0_L1I_writeback_hit 0
Core_0_L1I_writeback_miss 0
Core_0_L1I_miss_rate 0.00000
Core_0_L1I_MPKI 0.00000
Core_0_L1I_demand_miss 0
Core_0_L1I_prefetch_requested 0
Core_0_L1I_prefetch_issued 0
Core_0_L1I_prefetch_useful 0
Core_0_L1I_prefetch_useless 0
Core_0_L1I_prefetch_late 0
Core_0_L1I_average_miss_latency -nan

Replacement_count: 0
Bypassing_count: 0
Core_0_L2C_total_access 1031253
Core_0_L2C_total_hit 113080
Core_0_L2C_total_miss_isca 918173
Core_0_L2C_total_overlap_miss 0
Core_0_L2C_loads 975601
Core_0_L2C_load_hit 81406
Core_0_L2C_load_miss 894195
Core_0_L2C_RFOs 26117
Core_0_L2C_RFO_hit 2590
Core_0_L2C_RFO_miss 23527
Core_0_L2C_prefetches 0
Core_0_L2C_prefetch_hit 0
Core_0_L2C_prefetch_miss 0
Core_0_L2C_writebacks 29535
Core_0_L2C_writeback_hit 29084
Core_0_L2C_writeback_miss 451
Core_0_L2C_miss_rate 0.89035
Core_0_L2C_MPKI 18.36346
Core_0_L2C_demand_miss 918173
Core_0_L2C_prefetch_requested 0
Core_0_L2C_prefetch_issued 0
Core_0_L2C_prefetch_useful 0
Core_0_L2C_prefetch_useless 0
Core_0_L2C_prefetch_late 0
Core_0_L2C_average_miss_latency 625.61317

Replacement_count: 0
Bypassing_count: 0
Core_0_LLC_total_access 941678
Core_0_LLC_total_hit 23967
Core_0_LLC_total_miss_isca 917711
Core_0_LLC_total_overlap_miss 0
Core_0_LLC_loads 894195
Core_0_LLC_load_hit 156
Core_0_LLC_load_miss 894039
Core_0_LLC_RFOs 23527
Core_0_LLC_RFO_hit 0
Core_0_LLC_RFO_miss 23527
Core_0_LLC_prefetches 0
Core_0_LLC_prefetch_hit 0
Core_0_LLC_prefetch_miss 0
Core_0_LLC_writebacks 23956
Core_0_LLC_writeback_hit 23811
Core_0_LLC_writeback_miss 145
Core_0_LLC_miss_rate 0.97455
Core_0_LLC_MPKI 18.35422
Core_0_LLC_demand_miss 917711
Core_0_LLC_prefetch_requested 0
Core_0_LLC_prefetch_issued 0
Core_0_LLC_prefetch_useful 0
Core_0_LLC_prefetch_useless 0
Core_0_LLC_prefetch_late 0
Core_0_LLC_average_miss_latency 563.84794

Replacement_count: 0
Bypassing_count: 0
Core_0_major_page_fault 0
Core_0_minor_page_fault 16412


demand_hit_count: 156
presuse_distance_0_count: 0
presuse_distance_1_count: 0
presuse_distance_2_count: 1
presuse_distance_3_count: 8
presuse_distance_4_count: 23
presuse_distance_5_count: 15
presuse_distance_6_count: 25
presuse_distance_7_count: 34
presuse_distance_8_count: 20
presuse_distance_9_count: 11
presuse_distance_10_count: 6
presuse_distance_11_count: 2
presuse_distance_12_count: 6
presuse_distance_13_count: 1
presuse_distance_14_count: 1
presuse_distance_15_count: 2
presuse_distance_16_count: 1
presuse_distance_17_count: 0
presuse_distance_18_count: 0
presuse_distance_19_count: 0
presuse_distance_20_count: 0
presuse_distance_21_count: 0
presuse_distance_22_count: 0
presuse_distance_23_count: 0
presuse_distance_24_count: 0
presuse_distance_25_count: 0
presuse_distance_26_count: 0
presuse_distance_27_count: 0
presuse_distance_28_count: 0
presuse_distance_29_count: 0
presuse_distance_30_count: 0
presuse_distance_31_count: 0
presuse_distance_32_count: 0
presuse_distance_33_count: 0
presuse_distance_34_count: 0
presuse_distance_35_count: 0
presuse_distance_36_count: 0
presuse_distance_37_count: 0
presuse_distance_38_count: 0
presuse_distance_39_count: 0
presuse_distance_40_count: 0
presuse_distance_41_count: 0
presuse_distance_42_count: 0
presuse_distance_43_count: 0
presuse_distance_44_count: 0
presuse_distance_45_count: 0
presuse_distance_46_count: 0
presuse_distance_47_count: 0
presuse_distance_48_count: 0
presuse_distance_49_count: 0
presuse_distance_50_count: 0
presuse_distance_51_count: 0
presuse_distance_52_count: 0
presuse_distance_53_count: 0
presuse_distance_54_count: 0
presuse_distance_55_count: 0
presuse_distance_56_count: 0
presuse_distance_57_count: 0
presuse_distance_58_count: 0
presuse_distance_59_count: 0
presuse_distance_60_count: 0
presuse_distance_61_count: 0
presuse_distance_62_count: 0
presuse_distance_63_count: 0
presuse_distance_64_count: 0
presuse_distance_larger_than_64_count: 0
Channel_0_RQ_row_buffer_hit 706214
Channel_0_RQ_row_buffer_miss 211352
Channel_0_WQ_row_buffer_hit 726
Channel_0_WQ_row_buffer_miss 22976
Channel_0_WQ_full 0
Channel_0_dbus_congested 66679

avg_congested_cycle 7

DRAM_bw_pochs 0
DRAM_bw_level_0 0
DRAM_bw_level_1 0
DRAM_bw_level_2 0
DRAM_bw_level_3 0
LLC_cal_level_0 3430
LLC_cal_level_1 140
LLC_cal_level_2 0
LLC_cal_level_3 0
*************************************************
   ChampSim Multicore Out-of-Order Simulator
   Last compiled: Aug 25 2022 21:58:01
*************************************************
 DRAM access latency: 170
Off-chip DRAM Size: 4096 MB Channels: 1 Width: 64-bit Data Rate: 2400 MT/s
 DRAM_DBUS_RETURN_TIME: 13

trace_0 /home/cc/champsim/traces/429.mcf-22B.champsimtrace.xz
Initialize PREUSE state
llc_initialize_replacement complete 
warmup_instructions 10000000
simulation_instructions 50000000
champsim_seed 166

num_cpus 1
cpu_freq 4000
dram_io_freq 2400
page_size 4096
block_size 64
max_read_per_cycle 20
max_fill_per_cycle 20
dram_channels 1
dram_ranks 1
dram_banks 8
dram_rows 65536
dram_columns 128
dram_row_size 8
dram_size 4096
dram_pages 1048576

fetch_width 20
decode_width 20
exec_width 20
lq_width 20
sq_width 20
retire_width 20
scheduler_size 128
branch_mispredict_penalty 20
rob_size 256
lq_size 72
sq_size 56
num_instr_destinations_sparc 4
num_instr_destinations 2
num_instr_sources 4

itlb_set 16
itlb_way 8
itlb_rq_size 16
itlb_wq_size 16
itlb_pq_size 0
itlb_mshr_size 8
itlb_latency 1

dtlb_set 16
dtlb_way 4
dtlb_rq_size 16
dtlb_wq_size 16
dtlb_pq_size 0
dtlb_mshr_size 8
dtlb_latency 1

stlb_set 128
stlb_way 12
stlb_rq_size 32
stlb_wq_size 32
stlb_pq_size 0
stlb_mshr_size 16
stlb_latency 8

l1i_size 32
l1i_set 64
l1i_way 8
l1i_rq_size 64
l1i_wq_size 64
l1i_pq_size 8
l1i_mshr_size 8
l1i_latency 1

l1d_size 32
l1d_set 64
l1d_way 8
l1d_rq_size 64
l1d_wq_size 64
l1d_pq_size 8
l1d_mshr_size 16
l1d_latency 4

l2c_size 256
l2c_set 512
l2c_way 8
l2c_rq_size 32
l2c_wq_size 32
l2c_pq_size 16
l2c_mshr_size 32
l2c_latency 10

llc_size 2048
llc_set 2048
llc_way 16
llc_rq_size 32
llc_wq_size 32
llc_pq_size 32
llc_mshr_size 64
llc_latency 20

dram_channel_width 8
dram_wq_size 64
dram_rq_size 64
tRP 15
tRCD 15
tCAS 12.5
dram_dbus_turn_around_time 30
dram_write_high_wm 56
dram_write_low_wm 48
min_dram_writes_per_switch 16
dram_mtps 2400
dram_dbus_return_time 13


Heartbeat CPU  0 instructions:    1000008 cycles:     302290 heartbeat IPC: 3.30811 cumulative IPC: 3.30811 (Simulation time: 0 hr 0 min 1 sec) 
Heartbeat CPU  0 instructions:    2000018 cycles:     548596 heartbeat IPC: 4.06003 cumulative IPC: 3.64570 (Simulation time: 0 hr 0 min 2 sec) 
Heartbeat CPU  0 instructions:    3000003 cycles:     781575 heartbeat IPC: 4.29217 cumulative IPC: 3.83841 (Simulation time: 0 hr 0 min 3 sec) 
Heartbeat CPU  0 instructions:    4000000 cycles:    1058326 heartbeat IPC: 3.61335 cumulative IPC: 3.77955 (Simulation time: 0 hr 0 min 4 sec) 
Heartbeat CPU  0 instructions:    5000003 cycles:    1327004 heartbeat IPC: 3.72194 cumulative IPC: 3.76789 (Simulation time: 0 hr 0 min 5 sec) 
Heartbeat CPU  0 instructions:    6000017 cycles:    1603675 heartbeat IPC: 3.61445 cumulative IPC: 3.74142 (Simulation time: 0 hr 0 min 6 sec) 
Heartbeat CPU  0 instructions:    7000019 cycles:    1837118 heartbeat IPC: 4.28371 cumulative IPC: 3.81033 (Simulation time: 0 hr 0 min 7 sec) 
Heartbeat CPU  0 instructions:    8000000 cycles:    2063482 heartbeat IPC: 4.41758 cumulative IPC: 3.87694 (Simulation time: 0 hr 0 min 9 sec) 
Heartbeat CPU  0 instructions:    9000003 cycles:    2288261 heartbeat IPC: 4.44883 cumulative IPC: 3.93312 (Simulation time: 0 hr 0 min 10 sec) 
Heartbeat CPU  0 instructions:   10000012 cycles:    2513987 heartbeat IPC: 4.43019 cumulative IPC: 3.97775 (Simulation time: 0 hr 0 min 11 sec) 

Warmup complete CPU  0 instructions:   10000012 cycles:    2513987 (Simulation time: 0 hr 0 min 11 sec) 

Heartbeat CPU  0 instructions:   11000004 cycles:    5612163 heartbeat IPC: 0.32277 cumulative IPC: 0.32277 (Simulation time: 0 hr 0 min 14 sec) 
Heartbeat CPU  0 instructions:   12000000 cycles:   19488375 heartbeat IPC: 0.07207 cumulative IPC: 0.11782 (Simulation time: 0 hr 0 min 22 sec) 
Heartbeat CPU  0 instructions:   13000003 cycles:   22291476 heartbeat IPC: 0.35675 cumulative IPC: 0.15169 (Simulation time: 0 hr 0 min 25 sec) 
Heartbeat CPU  0 instructions:   14000000 cycles:   24222122 heartbeat IPC: 0.51796 cumulative IPC: 0.18426 (Simulation time: 0 hr 0 min 28 sec) 
Heartbeat CPU  0 instructions:   15000001 cycles:   26344753 heartbeat IPC: 0.47111 cumulative IPC: 0.20981 (Simulation time: 0 hr 0 min 30 sec) 
Heartbeat CPU  0 instructions:   16000000 cycles:   28802560 heartbeat IPC: 0.40687 cumulative IPC: 0.22824 (Simulation time: 0 hr 0 min 33 sec) 
Heartbeat CPU  0 instructions:   17000001 cycles:   31253292 heartbeat IPC: 0.40804 cumulative IPC: 0.24357 (Simulation time: 0 hr 0 min 36 sec) 
Heartbeat CPU  0 instructions:   18000000 cycles:   33719780 heartbeat IPC: 0.40543 cumulative IPC: 0.25636 (Simulation time: 0 hr 0 min 39 sec) 
Heartbeat CPU  0 instructions:   19000017 cycles:   36739900 heartbeat IPC: 0.33112 cumulative IPC: 0.26296 (Simulation time: 0 hr 0 min 43 sec) 
Heartbeat CPU  0 instructions:   20000000 cycles:   45217690 heartbeat IPC: 0.11795 cumulative IPC: 0.23417 (Simulation time: 0 hr 0 min 49 sec) 
Heartbeat CPU  0 instructions:   21000007 cycles:   47627407 heartbeat IPC: 0.41499 cumulative IPC: 0.24383 (Simulation time: 0 hr 0 min 52 sec) 
Heartbeat CPU  0 instructions:   22000004 cycles:   49604398 heartbeat IPC: 0.50582 cumulative IPC: 0.25483 (Simulation time: 0 hr 0 min 55 sec) 
Heartbeat CPU  0 instructions:   23000011 cycles:   51107790 heartbeat IPC: 0.66517 cumulative IPC: 0.26752 (Simulation time: 0 hr 0 min 57 sec) 
Heartbeat CPU  0 instructions:   24000000 cycles:   53304821 heartbeat IPC: 0.45515 cumulative IPC: 0.27564 (Simulation time: 0 hr 1 min 0 sec) 
Heartbeat CPU  0 instructions:   25000001 cycles:   55744426 heartbeat IPC: 0.40990 cumulative IPC: 0.28179 (Simulation time: 0 hr 1 min 2 sec) 
Heartbeat CPU  0 instructions:   26000002 cycles:   58202180 heartbeat IPC: 0.40688 cumulative IPC: 0.28731 (Simulation time: 0 hr 1 min 5 sec) 
Heartbeat CPU  0 instructions:   27000014 cycles:   59916489 heartbeat IPC: 0.58333 cumulative IPC: 0.29615 (Simulation time: 0 hr 1 min 8 sec) 
Heartbeat CPU  0 instructions:   28000000 cycles:   61399704 heartbeat IPC: 0.67420 cumulative IPC: 0.30568 (Simulation time: 0 hr 1 min 10 sec) 
Heartbeat CPU  0 instructions:   29000013 cycles:   63651137 heartbeat IPC: 0.44417 cumulative IPC: 0.31078 (Simulation time: 0 hr 1 min 12 sec) 
Heartbeat CPU  0 instructions:   30000009 cycles:   66877329 heartbeat IPC: 0.30996 cumulative IPC: 0.31074 (Simulation time: 0 hr 1 min 16 sec) 
Heartbeat CPU  0 instructions:   31000007 cycles:   69416683 heartbeat IPC: 0.39380 cumulative IPC: 0.31389 (Simulation time: 0 hr 1 min 18 sec) 
Heartbeat CPU  0 instructions:   32000000 cycles:   71961259 heartbeat IPC: 0.39299 cumulative IPC: 0.31679 (Simulation time: 0 hr 1 min 21 sec) 
Heartbeat CPU  0 instructions:   33000008 cycles:   74301541 heartbeat IPC: 0.42730 cumulative IPC: 0.32039 (Simulation time: 0 hr 1 min 24 sec) 
Heartbeat CPU  0 instructions:   34000006 cycles:   76257616 heartbeat IPC: 0.51123 cumulative IPC: 0.32545 (Simulation time: 0 hr 1 min 27 sec) 
Heartbeat CPU  0 instructions:   35000004 cycles:   77715178 heartbeat IPC: 0.68608 cumulative IPC: 0.33244 (Simulation time: 0 hr 1 min 29 sec) 
Heartbeat CPU  0 instructions:   36000000 cycles:   79137874 heartbeat IPC: 0.70289 cumulative IPC: 0.33932 (Simulation time: 0 hr 1 min 31 sec) 
Heartbeat CPU  0 instructions:   37000002 cycles:   81196128 heartbeat IPC: 0.48585 cumulative IPC: 0.34315 (Simulation time: 0 hr 1 min 34 sec) 
Heartbeat CPU  0 instructions:   38000015 cycles:   83853609 heartbeat IPC: 0.37630 cumulative IPC: 0.34424 (Simulation time: 0 hr 1 min 36 sec) 
Heartbeat CPU  0 instructions:   39000013 cycles:   87215624 heartbeat IPC: 0.29744 cumulative IPC: 0.34238 (Simulation time: 0 hr 1 min 40 sec) 
Heartbeat CPU  0 instructions:   40000000 cycles:   89511790 heartbeat IPC: 0.43550 cumulative IPC: 0.34484 (Simulation time: 0 hr 1 min 42 sec) 
Heartbeat CPU  0 instructions:   41000002 cycles:   91797785 heartbeat IPC: 0.43745 cumulative IPC: 0.34721 (Simulation time: 0 hr 1 min 45 sec) 
Heartbeat CPU  0 instructions:   42000010 cycles:   94060243 heartbeat IPC: 0.44200 cumulative IPC: 0.34955 (Simulation time: 0 hr 1 min 48 sec) 
Heartbeat CPU  0 instructions:   43000005 cycles:   96451954 heartbeat IPC: 0.41811 cumulative IPC: 0.35130 (Simulation time: 0 hr 1 min 51 sec) 
Heartbeat CPU  0 instructions:   44000000 cycles:   99322779 heartbeat IPC: 0.34833 cumulative IPC: 0.35121 (Simulation time: 0 hr 1 min 54 sec) 
Heartbeat CPU  0 instructions:   45000006 cycles:  102516023 heartbeat IPC: 0.31316 cumulative IPC: 0.34999 (Simulation time: 0 hr 1 min 57 sec) 
Heartbeat CPU  0 instructions:   46000011 cycles:  105742740 heartbeat IPC: 0.30991 cumulative IPC: 0.34874 (Simulation time: 0 hr 2 min 1 sec) 
Heartbeat CPU  0 instructions:   47000000 cycles:  108922029 heartbeat IPC: 0.31453 cumulative IPC: 0.34772 (Simulation time: 0 hr 2 min 4 sec) 
Heartbeat CPU  0 instructions:   48000000 cycles:  112615492 heartbeat IPC: 0.27075 cumulative IPC: 0.34514 (Simulation time: 0 hr 2 min 8 sec) 
Heartbeat CPU  0 instructions:   49000010 cycles:  117426673 heartbeat IPC: 0.20785 cumulative IPC: 0.33939 (Simulation time: 0 hr 2 min 12 sec) 
Heartbeat CPU  0 instructions:   50000001 cycles:  120349120 heartbeat IPC: 0.34218 cumulative IPC: 0.33946 (Simulation time: 0 hr 2 min 14 sec) 
Heartbeat CPU  0 instructions:   51000014 cycles:  124234883 heartbeat IPC: 0.25735 cumulative IPC: 0.33684 (Simulation time: 0 hr 2 min 18 sec) 
Heartbeat CPU  0 instructions:   52000000 cycles:  127433655 heartbeat IPC: 0.31262 cumulative IPC: 0.33622 (Simulation time: 0 hr 2 min 21 sec) 
Heartbeat CPU  0 instructions:   53000001 cycles:  129760114 heartbeat IPC: 0.42984 cumulative IPC: 0.33793 (Simulation time: 0 hr 2 min 23 sec) 
Heartbeat CPU  0 instructions:   54000008 cycles:  133003916 heartbeat IPC: 0.30828 cumulative IPC: 0.33719 (Simulation time: 0 hr 2 min 26 sec) 
Heartbeat CPU  0 instructions:   55000003 cycles:  135648149 heartbeat IPC: 0.37818 cumulative IPC: 0.33800 (Simulation time: 0 hr 2 min 28 sec) 
Heartbeat CPU  0 instructions:   56000000 cycles:  137946131 heartbeat IPC: 0.43516 cumulative IPC: 0.33965 (Simulation time: 0 hr 2 min 31 sec) 
Heartbeat CPU  0 instructions:   57000000 cycles:  139699011 heartbeat IPC: 0.57049 cumulative IPC: 0.34260 (Simulation time: 0 hr 2 min 33 sec) 
Heartbeat CPU  0 instructions:   58000007 cycles:  143732281 heartbeat IPC: 0.24794 cumulative IPC: 0.33990 (Simulation time: 0 hr 2 min 37 sec) 
Heartbeat CPU  0 instructions:   59000002 cycles:  153998091 heartbeat IPC: 0.09741 cumulative IPC: 0.32347 (Simulation time: 0 hr 2 min 43 sec) 
Heartbeat CPU  0 instructions:   60000000 cycles:  158043445 heartbeat IPC: 0.24720 cumulative IPC: 0.32148 (Simulation time: 0 hr 2 min 46 sec) 
Finished CPU 0 instructions: 50000010 cycles: 155529709 cumulative IPC: 0.32148 (Simulation time: 0 hr 2 min 46 sec) 

ChampSim completed all CPUs

[ROI Statistics]
Core_0_instructions 50000010
Core_0_cycles 155529709
Core_0_IPC 0.32148

Core_0_branch_prediction_accuracy 97.84119
Core_0_branch_MPKI 1.85394
Core_0_average_ROB_occupancy_at_mispredict 153.87428

Core_0_L1D_total_access 16936090
Core_0_L1D_total_hit 15559329
Core_0_L1D_total_miss_isca 1376761
Core_0_L1D_total_overlap_miss 0
Core_0_L1D_loads 5871161
Core_0_L1D_load_hit 4494615
Core_0_L1D_load_miss 1376546
Core_0_L1D_RFOs 11064929
Core_0_L1D_RFO_hit 11064714
Core_0_L1D_RFO_miss 215
Core_0_L1D_prefetches 0
Core_0_L1D_prefetch_hit 0
Core_0_L1D_prefetch_miss 0
Core_0_L1D_writebacks 0
Core_0_L1D_writeback_hit 0
Core_0_L1D_writeback_miss 0
Core_0_L1D_miss_rate 0.08129
Core_0_L1D_MPKI 27.53522
Core_0_L1D_demand_miss 1376761
Core_0_L1D_prefetch_requested 0
Core_0_L1D_prefetch_issued 0
Core_0_L1D_prefetch_useful 0
Core_0_L1D_prefetch_useless 0
Core_0_L1D_prefetch_late 0
Core_0_L1D_average_miss_latency 496.10899

Replacement_count: 0
Bypassing_count: 0
Core_0_L1I_total_access 9270956
Core_0_L1I_total_hit 9270956
Core_0_L1I_total_miss_isca 0
Core_0_L1I_total_overlap_miss 0
Core_0_L1I_loads 9270956
Core_0_L1I_load_hit 9270956
Core_0_L1I_load_miss 0
Core_0_L1I_RFOs 0
Core_0_L1I_RFO_hit 0
Core_0_L1I_RFO_miss 0
Core_0_L1I_prefetches 0
Core_0_L1I_prefetch_hit 0
Core_0_L1I_prefetch_miss 0
Core_0_L1I_writebacks 0
Core_0_L1I_writeback_hit 0
Core_0_L1I_writeback_miss 0
Core_0_L1I_miss_rate 0.00000
Core_0_L1I_MPKI 0.00000
Core_0_L1I_demand_miss 0
Core_0_L1I_prefetch_requested 0
Core_0_L1I_prefetch_issued 0
Core_0_L1I_prefetch_useful 0
Core_0_L1I_prefetch_useless 0
Core_0_L1I_prefetch_late 0
Core_0_L1I_average_miss_latency -nan

Replacement_count: 0
Bypassing_count: 0
Core_0_L2C_total_access 2074500
Core_0_L2C_total_hit 733794
Core_0_L2C_total_miss_isca 1340706
Core_0_L2C_total_overlap_miss 0
Core_0_L2C_loads 1376363
Core_0_L2C_load_hit 37406
Core_0_L2C_load_miss 1338957
Core_0_L2C_RFOs 215
Core_0_L2C_RFO_hit 191
Core_0_L2C_RFO_miss 24
Core_0_L2C_prefetches 0
Core_0_L2C_prefetch_hit 0
Core_0_L2C_prefetch_miss 0
Core_0_L2C_writebacks 697922
Core_0_L2C_writeback_hit 696197
Core_0_L2C_writeback_miss 1725
Core_0_L2C_miss_rate 0.64628
Core_0_L2C_MPKI 26.81412
Core_0_L2C_demand_miss 1340706
Core_0_L2C_prefetch_requested 0
Core_0_L2C_prefetch_issued 0
Core_0_L2C_prefetch_useful 0
Core_0_L2C_prefetch_useless 0
Core_0_L2C_prefetch_late 0
Core_0_L2C_average_miss_latency 458.53734

Replacement_count: 0
Bypassing_count: 0
Core_0_LLC_total_access 2009175
Core_0_LLC_total_hit 695242
Core_0_LLC_total_miss_isca 1313933
Core_0_LLC_total_overlap_miss 0
Core_0_LLC_loads 1338958
Core_0_LLC_load_hit 25343
Core_0_LLC_load_miss 1313615
Core_0_LLC_RFOs 24
Core_0_LLC_RFO_hit 11
Core_0_LLC_RFO_miss 13
Core_0_LLC_prefetches 0
Core_0_LLC_prefetch_hit 0
Core_0_LLC_prefetch_miss 0
Core_0_LLC_writebacks 670193
Core_0_LLC_writeback_hit 669888
Core_0_LLC_writeback_miss 305
Core_0_LLC_miss_rate 0.65397
Core_0_LLC_MPKI 26.27866
Core_0_LLC_demand_miss 1313933
Core_0_LLC_prefetch_requested 0
Core_0_LLC_prefetch_issued 0
Core_0_LLC_prefetch_useful 0
Core_0_LLC_prefetch_useless 0
Core_0_LLC_prefetch_late 0
Core_0_LLC_average_miss_latency 397.73860

Replacement_count: 0
Bypassing_count: 0
Core_0_major_page_fault 0
Core_0_minor_page_fault 124290


demand_hit_count: 25354
presuse_distance_0_count: 0
presuse_distance_1_count: 287
presuse_distance_2_count: 1074
presuse_distance_3_count: 1961
presuse_distance_4_count: 2356
presuse_distance_5_count: 2342
presuse_distance_6_count: 2105
presuse_distance_7_count: 1934
presuse_distance_8_count: 1759
presuse_distance_9_count: 1530
presuse_distance_10_count: 1369
presuse_distance_11_count: 1378
presuse_distance_12_count: 1248
presuse_distance_13_count: 1210
presuse_distance_14_count: 1224
presuse_distance_15_count: 1569
presuse_distance_16_count: 1448
presuse_distance_17_count: 287
presuse_distance_18_count: 122
presuse_distance_19_count: 62
presuse_distance_20_count: 26
presuse_distance_21_count: 17
presuse_distance_22_count: 14
presuse_distance_23_count: 7
presuse_distance_24_count: 7
presuse_distance_25_count: 4
presuse_distance_26_count: 2
presuse_distance_27_count: 3
presuse_distance_28_count: 1
presuse_distance_29_count: 2
presuse_distance_30_count: 2
presuse_distance_31_count: 3
presuse_distance_32_count: 0
presuse_distance_33_count: 1
presuse_distance_34_count: 0
presuse_distance_35_count: 0
presuse_distance_36_count: 0
presuse_distance_37_count: 0
presuse_distance_38_count: 0
presuse_distance_39_count: 0
presuse_distance_40_count: 0
presuse_distance_41_count: 0
presuse_distance_42_count: 0
presuse_distance_43_count: 0
presuse_distance_44_count: 0
presuse_distance_45_count: 0
presuse_distance_46_count: 0
presuse_distance_47_count: 0
presuse_distance_48_count: 0
presuse_distance_49_count: 0
presuse_distance_50_count: 0
presuse_distance_51_count: 0
presuse_distance_52_count: 0
presuse_distance_53_count: 0
presuse_distance_54_count: 0
presuse_distance_55_count: 0
presuse_distance_56_count: 0
presuse_distance_57_count: 0
presuse_distance_58_count: 0
presuse_distance_59_count: 0
presuse_distance_60_count: 0
presuse_distance_61_count: 0
presuse_distance_62_count: 0
presuse_distance_63_count: 0
presuse_distance_64_count: 0
presuse_distance_larger_than_64_count: 0
Channel_0_RQ_row_buffer_hit 209633
Channel_0_RQ_row_buffer_miss 1103978
Channel_0_WQ_row_buffer_hit 196651
Channel_0_WQ_row_buffer_miss 457526
Channel_0_WQ_full 0
Channel_0_dbus_congested 873116

avg_congested_cycle 11

DRAM_bw_pochs 0
DRAM_bw_level_0 0
DRAM_bw_level_1 0
DRAM_bw_level_2 0
DRAM_bw_level_3 0
LLC_cal_level_0 4837
LLC_cal_level_1 269
LLC_cal_level_2 0
LLC_cal_level_3 0
*************************************************
   ChampSim Multicore Out-of-Order Simulator
   Last compiled: Aug 25 2022 21:58:01
*************************************************
 DRAM access latency: 170
Off-chip DRAM Size: 4096 MB Channels: 1 Width: 64-bit Data Rate: 2400 MT/s
 DRAM_DBUS_RETURN_TIME: 13

trace_0 /home/cc/champsim/traces/433.milc-127B.champsimtrace.xz
Initialize PREUSE state
llc_initialize_replacement complete 
warmup_instructions 10000000
simulation_instructions 50000000
champsim_seed 220

num_cpus 1
cpu_freq 4000
dram_io_freq 2400
page_size 4096
block_size 64
max_read_per_cycle 20
max_fill_per_cycle 20
dram_channels 1
dram_ranks 1
dram_banks 8
dram_rows 65536
dram_columns 128
dram_row_size 8
dram_size 4096
dram_pages 1048576

fetch_width 20
decode_width 20
exec_width 20
lq_width 20
sq_width 20
retire_width 20
scheduler_size 128
branch_mispredict_penalty 20
rob_size 256
lq_size 72
sq_size 56
num_instr_destinations_sparc 4
num_instr_destinations 2
num_instr_sources 4

itlb_set 16
itlb_way 8
itlb_rq_size 16
itlb_wq_size 16
itlb_pq_size 0
itlb_mshr_size 8
itlb_latency 1

dtlb_set 16
dtlb_way 4
dtlb_rq_size 16
dtlb_wq_size 16
dtlb_pq_size 0
dtlb_mshr_size 8
dtlb_latency 1

stlb_set 128
stlb_way 12
stlb_rq_size 32
stlb_wq_size 32
stlb_pq_size 0
stlb_mshr_size 16
stlb_latency 8

l1i_size 32
l1i_set 64
l1i_way 8
l1i_rq_size 64
l1i_wq_size 64
l1i_pq_size 8
l1i_mshr_size 8
l1i_latency 1

l1d_size 32
l1d_set 64
l1d_way 8
l1d_rq_size 64
l1d_wq_size 64
l1d_pq_size 8
l1d_mshr_size 16
l1d_latency 4

l2c_size 256
l2c_set 512
l2c_way 8
l2c_rq_size 32
l2c_wq_size 32
l2c_pq_size 16
l2c_mshr_size 32
l2c_latency 10

llc_size 2048
llc_set 2048
llc_way 16
llc_rq_size 32
llc_wq_size 32
llc_pq_size 32
llc_mshr_size 64
llc_latency 20

dram_channel_width 8
dram_wq_size 64
dram_rq_size 64
tRP 15
tRCD 15
tCAS 12.5
dram_dbus_turn_around_time 30
dram_write_high_wm 56
dram_write_low_wm 48
min_dram_writes_per_switch 16
dram_mtps 2400
dram_dbus_return_time 13


Heartbeat CPU  0 instructions:    1000000 cycles:     445622 heartbeat IPC: 2.24405 cumulative IPC: 2.24405 (Simulation time: 0 hr 0 min 1 sec) 
Heartbeat CPU  0 instructions:    2000002 cycles:     891996 heartbeat IPC: 2.24028 cumulative IPC: 2.24216 (Simulation time: 0 hr 0 min 2 sec) 
Heartbeat CPU  0 instructions:    3000001 cycles:    1338360 heartbeat IPC: 2.24032 cumulative IPC: 2.24155 (Simulation time: 0 hr 0 min 3 sec) 
Heartbeat CPU  0 instructions:    4000000 cycles:    1784758 heartbeat IPC: 2.24015 cumulative IPC: 2.24120 (Simulation time: 0 hr 0 min 4 sec) 
Heartbeat CPU  0 instructions:    5000001 cycles:    2231131 heartbeat IPC: 2.24028 cumulative IPC: 2.24102 (Simulation time: 0 hr 0 min 5 sec) 
Heartbeat CPU  0 instructions:    6000000 cycles:    2677489 heartbeat IPC: 2.24035 cumulative IPC: 2.24091 (Simulation time: 0 hr 0 min 6 sec) 
Heartbeat CPU  0 instructions:    7000000 cycles:    3123882 heartbeat IPC: 2.24018 cumulative IPC: 2.24080 (Simulation time: 0 hr 0 min 7 sec) 
Heartbeat CPU  0 instructions:    8000000 cycles:    3570267 heartbeat IPC: 2.24022 cumulative IPC: 2.24073 (Simulation time: 0 hr 0 min 8 sec) 
Heartbeat CPU  0 instructions:    9000003 cycles:    4016621 heartbeat IPC: 2.24038 cumulative IPC: 2.24069 (Simulation time: 0 hr 0 min 9 sec) 
Heartbeat CPU  0 instructions:   10000002 cycles:    4463013 heartbeat IPC: 2.24018 cumulative IPC: 2.24064 (Simulation time: 0 hr 0 min 10 sec) 

Warmup complete CPU  0 instructions:   10000002 cycles:    4463013 (Simulation time: 0 hr 0 min 10 sec) 

Heartbeat CPU  0 instructions:   11000016 cycles:    7105932 heartbeat IPC: 0.37837 cumulative IPC: 0.37837 (Simulation time: 0 hr 0 min 13 sec) 
Heartbeat CPU  0 instructions:   12000000 cycles:    9743809 heartbeat IPC: 0.37909 cumulative IPC: 0.37873 (Simulation time: 0 hr 0 min 16 sec) 
Heartbeat CPU  0 instructions:   13000015 cycles:   12403403 heartbeat IPC: 0.37600 cumulative IPC: 0.37782 (Simulation time: 0 hr 0 min 20 sec) 
Heartbeat CPU  0 instructions:   14000014 cycles:   15084203 heartbeat IPC: 0.37302 cumulative IPC: 0.37661 (Simulation time: 0 hr 0 min 23 sec) 
Heartbeat CPU  0 instructions:   15000013 cycles:   17712417 heartbeat IPC: 0.38049 cumulative IPC: 0.37738 (Simulation time: 0 hr 0 min 26 sec) 
Heartbeat CPU  0 instructions:   16000000 cycles:   20350523 heartbeat IPC: 0.37905 cumulative IPC: 0.37766 (Simulation time: 0 hr 0 min 29 sec) 
Heartbeat CPU  0 instructions:   17000010 cycles:   23040370 heartbeat IPC: 0.37177 cumulative IPC: 0.37680 (Simulation time: 0 hr 0 min 32 sec) 
Heartbeat CPU  0 instructions:   18000010 cycles:   25662915 heartbeat IPC: 0.38131 cumulative IPC: 0.37736 (Simulation time: 0 hr 0 min 35 sec) 
Heartbeat CPU  0 instructions:   19000009 cycles:   28332821 heartbeat IPC: 0.37454 cumulative IPC: 0.37705 (Simulation time: 0 hr 0 min 38 sec) 
Heartbeat CPU  0 instructions:   20000000 cycles:   30688013 heartbeat IPC: 0.42459 cumulative IPC: 0.38132 (Simulation time: 0 hr 0 min 42 sec) 
Heartbeat CPU  0 instructions:   21000001 cycles:   33283691 heartbeat IPC: 0.38526 cumulative IPC: 0.38167 (Simulation time: 0 hr 0 min 45 sec) 
Heartbeat CPU  0 instructions:   22000007 cycles:   38948330 heartbeat IPC: 0.17653 cumulative IPC: 0.34797 (Simulation time: 0 hr 0 min 51 sec) 
Heartbeat CPU  0 instructions:   23000015 cycles:   44431039 heartbeat IPC: 0.18239 cumulative IPC: 0.32526 (Simulation time: 0 hr 0 min 57 sec) 
Heartbeat CPU  0 instructions:   24000000 cycles:   49660545 heartbeat IPC: 0.19122 cumulative IPC: 0.30975 (Simulation time: 0 hr 1 min 2 sec) 
Heartbeat CPU  0 instructions:   25000004 cycles:   51279051 heartbeat IPC: 0.61786 cumulative IPC: 0.32040 (Simulation time: 0 hr 1 min 5 sec) 
Heartbeat CPU  0 instructions:   26000000 cycles:   52903022 heartbeat IPC: 0.61577 cumulative IPC: 0.33031 (Simulation time: 0 hr 1 min 7 sec) 
Heartbeat CPU  0 instructions:   27000005 cycles:   54528528 heartbeat IPC: 0.61520 cumulative IPC: 0.33956 (Simulation time: 0 hr 1 min 9 sec) 
Heartbeat CPU  0 instructions:   28000000 cycles:   56146160 heartbeat IPC: 0.61818 cumulative IPC: 0.34828 (Simulation time: 0 hr 1 min 12 sec) 
Heartbeat CPU  0 instructions:   29000010 cycles:   57753985 heartbeat IPC: 0.62196 cumulative IPC: 0.35653 (Simulation time: 0 hr 1 min 14 sec) 
Heartbeat CPU  0 instructions:   30000004 cycles:   59354529 heartbeat IPC: 0.62478 cumulative IPC: 0.36436 (Simulation time: 0 hr 1 min 17 sec) 
Heartbeat CPU  0 instructions:   31000009 cycles:   60985238 heartbeat IPC: 0.61323 cumulative IPC: 0.37154 (Simulation time: 0 hr 1 min 19 sec) 
Heartbeat CPU  0 instructions:   32000000 cycles:   62587236 heartbeat IPC: 0.62421 cumulative IPC: 0.37850 (Simulation time: 0 hr 1 min 22 sec) 
Heartbeat CPU  0 instructions:   33000012 cycles:   64195676 heartbeat IPC: 0.62173 cumulative IPC: 0.38505 (Simulation time: 0 hr 1 min 24 sec) 
Heartbeat CPU  0 instructions:   34000008 cycles:   65747053 heartbeat IPC: 0.64459 cumulative IPC: 0.39162 (Simulation time: 0 hr 1 min 26 sec) 
Heartbeat CPU  0 instructions:   35000012 cycles:   67279078 heartbeat IPC: 0.65273 cumulative IPC: 0.39799 (Simulation time: 0 hr 1 min 29 sec) 
Heartbeat CPU  0 instructions:   36000000 cycles:   68926602 heartbeat IPC: 0.60696 cumulative IPC: 0.40333 (Simulation time: 0 hr 1 min 31 sec) 
Heartbeat CPU  0 instructions:   37000006 cycles:   70632102 heartbeat IPC: 0.58634 cumulative IPC: 0.40805 (Simulation time: 0 hr 1 min 34 sec) 
Heartbeat CPU  0 instructions:   38000002 cycles:   72336760 heartbeat IPC: 0.58663 cumulative IPC: 0.41253 (Simulation time: 0 hr 1 min 36 sec) 
Heartbeat CPU  0 instructions:   39000000 cycles:   74042783 heartbeat IPC: 0.58616 cumulative IPC: 0.41679 (Simulation time: 0 hr 1 min 39 sec) 
Heartbeat CPU  0 instructions:   40000000 cycles:   75748784 heartbeat IPC: 0.58617 cumulative IPC: 0.42084 (Simulation time: 0 hr 1 min 41 sec) 
Heartbeat CPU  0 instructions:   41000018 cycles:   77455189 heartbeat IPC: 0.58604 cumulative IPC: 0.42470 (Simulation time: 0 hr 1 min 43 sec) 
Heartbeat CPU  0 instructions:   42000003 cycles:   79159807 heartbeat IPC: 0.58663 cumulative IPC: 0.42840 (Simulation time: 0 hr 1 min 46 sec) 
Heartbeat CPU  0 instructions:   43000002 cycles:   80865461 heartbeat IPC: 0.58628 cumulative IPC: 0.43192 (Simulation time: 0 hr 1 min 48 sec) 
Heartbeat CPU  0 instructions:   44000000 cycles:   82572399 heartbeat IPC: 0.58584 cumulative IPC: 0.43529 (Simulation time: 0 hr 1 min 51 sec) 
Heartbeat CPU  0 instructions:   45000006 cycles:   84276817 heartbeat IPC: 0.58671 cumulative IPC: 0.43852 (Simulation time: 0 hr 1 min 53 sec) 
Heartbeat CPU  0 instructions:   46000008 cycles:   85983096 heartbeat IPC: 0.58607 cumulative IPC: 0.44161 (Simulation time: 0 hr 1 min 56 sec) 
Heartbeat CPU  0 instructions:   47000016 cycles:   87688245 heartbeat IPC: 0.58646 cumulative IPC: 0.44458 (Simulation time: 0 hr 1 min 58 sec) 
Heartbeat CPU  0 instructions:   48000000 cycles:   89393411 heartbeat IPC: 0.58644 cumulative IPC: 0.44743 (Simulation time: 0 hr 2 min 1 sec) 
Heartbeat CPU  0 instructions:   49000000 cycles:   91100913 heartbeat IPC: 0.58565 cumulative IPC: 0.45015 (Simulation time: 0 hr 2 min 3 sec) 
Heartbeat CPU  0 instructions:   50000008 cycles:   92807105 heartbeat IPC: 0.58611 cumulative IPC: 0.45278 (Simulation time: 0 hr 2 min 6 sec) 
Heartbeat CPU  0 instructions:   51000002 cycles:   94513804 heartbeat IPC: 0.58592 cumulative IPC: 0.45530 (Simulation time: 0 hr 2 min 8 sec) 
Heartbeat CPU  0 instructions:   52000000 cycles:   96219551 heartbeat IPC: 0.58625 cumulative IPC: 0.45773 (Simulation time: 0 hr 2 min 11 sec) 
Heartbeat CPU  0 instructions:   53000014 cycles:   97926330 heartbeat IPC: 0.58591 cumulative IPC: 0.46007 (Simulation time: 0 hr 2 min 13 sec) 
Heartbeat CPU  0 instructions:   54000010 cycles:   99630673 heartbeat IPC: 0.58673 cumulative IPC: 0.46234 (Simulation time: 0 hr 2 min 16 sec) 
Heartbeat CPU  0 instructions:   55000000 cycles:  101335883 heartbeat IPC: 0.58643 cumulative IPC: 0.46453 (Simulation time: 0 hr 2 min 18 sec) 
Heartbeat CPU  0 instructions:   56000000 cycles:  103039477 heartbeat IPC: 0.58699 cumulative IPC: 0.46664 (Simulation time: 0 hr 2 min 20 sec) 
Heartbeat CPU  0 instructions:   57000012 cycles:  104745237 heartbeat IPC: 0.58626 cumulative IPC: 0.46868 (Simulation time: 0 hr 2 min 23 sec) 
Heartbeat CPU  0 instructions:   58000008 cycles:  106451599 heartbeat IPC: 0.58604 cumulative IPC: 0.47064 (Simulation time: 0 hr 2 min 25 sec) 
Heartbeat CPU  0 instructions:   59000019 cycles:  108154290 heartbeat IPC: 0.58731 cumulative IPC: 0.47256 (Simulation time: 0 hr 2 min 28 sec) 
Heartbeat CPU  0 instructions:   60000000 cycles:  109849695 heartbeat IPC: 0.58982 cumulative IPC: 0.47444 (Simulation time: 0 hr 2 min 30 sec) 
Finished CPU 0 instructions: 50000001 cycles: 105386692 cumulative IPC: 0.47444 (Simulation time: 0 hr 2 min 30 sec) 

ChampSim completed all CPUs

[ROI Statistics]
Core_0_instructions 50000001
Core_0_cycles 105386692
Core_0_IPC 0.47444

Core_0_branch_prediction_accuracy 99.99803
Core_0_branch_MPKI 0.00108
Core_0_average_ROB_occupancy_at_mispredict 97.48148

Core_0_L1D_total_access 11001798
Core_0_L1D_total_hit 10050780
Core_0_L1D_total_miss_isca 951018
Core_0_L1D_total_overlap_miss 0
Core_0_L1D_loads 4812626
Core_0_L1D_load_hit 4049444
Core_0_L1D_load_miss 763182
Core_0_L1D_RFOs 6189172
Core_0_L1D_RFO_hit 6001336
Core_0_L1D_RFO_miss 187836
Core_0_L1D_prefetches 0
Core_0_L1D_prefetch_hit 0
Core_0_L1D_prefetch_miss 0
Core_0_L1D_writebacks 0
Core_0_L1D_writeback_hit 0
Core_0_L1D_writeback_miss 0
Core_0_L1D_miss_rate 0.08644
Core_0_L1D_MPKI 19.02036
Core_0_L1D_demand_miss 951018
Core_0_L1D_prefetch_requested 0
Core_0_L1D_prefetch_issued 0
Core_0_L1D_prefetch_useful 0
Core_0_L1D_prefetch_useless 0
Core_0_L1D_prefetch_late 0
Core_0_L1D_average_miss_latency 504.73996

Replacement_count: 0
Bypassing_count: 0
Core_0_L1I_total_access 9308749
Core_0_L1I_total_hit 9308703
Core_0_L1I_total_miss_isca 46
Core_0_L1I_total_overlap_miss 0
Core_0_L1I_loads 9308749
Core_0_L1I_load_hit 9308703
Core_0_L1I_load_miss 46
Core_0_L1I_RFOs 0
Core_0_L1I_RFO_hit 0
Core_0_L1I_RFO_miss 0
Core_0_L1I_prefetches 0
Core_0_L1I_prefetch_hit 0
Core_0_L1I_prefetch_miss 0
Core_0_L1I_writebacks 0
Core_0_L1I_writeback_hit 0
Core_0_L1I_writeback_miss 0
Core_0_L1I_miss_rate 0.00000
Core_0_L1I_MPKI 0.00092
Core_0_L1I_demand_miss 46
Core_0_L1I_prefetch_requested 0
Core_0_L1I_prefetch_issued 0
Core_0_L1I_prefetch_useful 0
Core_0_L1I_prefetch_useless 0
Core_0_L1I_prefetch_late 0
Core_0_L1I_average_miss_latency 508.82609

Replacement_count: 0
Bypassing_count: 0
Core_0_L2C_total_access 1305330
Core_0_L2C_total_hit 354265
Core_0_L2C_total_miss_isca 951065
Core_0_L2C_total_overlap_miss 0
Core_0_L2C_loads 763228
Core_0_L2C_load_hit 0
Core_0_L2C_load_miss 763228
Core_0_L2C_RFOs 187836
Core_0_L2C_RFO_hit 0
Core_0_L2C_RFO_miss 187836
Core_0_L2C_prefetches 0
Core_0_L2C_prefetch_hit 0
Core_0_L2C_prefetch_miss 0
Core_0_L2C_writebacks 354266
Core_0_L2C_writeback_hit 354265
Core_0_L2C_writeback_miss 1
Core_0_L2C_miss_rate 0.72860
Core_0_L2C_MPKI 19.02130
Core_0_L2C_demand_miss 951065
Core_0_L2C_prefetch_requested 0
Core_0_L2C_prefetch_issued 0
Core_0_L2C_prefetch_useful 0
Core_0_L2C_prefetch_useless 0
Core_0_L2C_prefetch_late 0
Core_0_L2C_average_miss_latency 471.07286

Replacement_count: 0
Bypassing_count: 0
[...]
Core_0_L2C_prefetch_useful 0
Core_0_L2C_prefetch_useless 0
Core_0_L2C_prefetch_late 0
Core_0_L2C_average_miss_latency 481.09999

Replacement_count: 0
Bypassing_count: 0
Core_0_LLC_total_access 1613411
Core_0_LLC_total_hit 401685
Core_0_LLC_total_miss_isca 1211726
Core_0_LLC_total_overlap_miss 0
Core_0_LLC_loads 943334
Core_0_LLC_load_hit 4
Core_0_LLC_load_miss 943330
Core_0_LLC_RFOs 268382
Core_0_LLC_RFO_hit 0
Core_0_LLC_RFO_miss 268382
Core_0_LLC_prefetches 0
Core_0_LLC_prefetch_hit 0
Core_0_LLC_prefetch_miss 0
Core_0_LLC_writebacks 401695
Core_0_LLC_writeback_hit 401681
Core_0_LLC_writeback_miss 14
Core_0_LLC_miss_rate 0.75103
Core_0_LLC_MPKI 24.23452
Core_0_LLC_demand_miss 1211726
Core_0_LLC_prefetch_requested 0
Core_0_LLC_prefetch_issued 0
Core_0_LLC_prefetch_useful 0
Core_0_LLC_prefetch_useless 0
Core_0_LLC_prefetch_late 0
Core_0_LLC_average_miss_latency 420.34221

Replacement_count: 0
Bypassing_count: 0
Core_0_major_page_fault 0
Core_0_minor_page_fault 19556


demand_hit_count: 4
presuse_distance_0_count: 0
presuse_distance_1_count: 0
presuse_distance_2_count: 0
presuse_distance_3_count: 0
presuse_distance_4_count: 0
presuse_distance_5_count: 1
presuse_distance_6_count: 1
presuse_distance_7_count: 0
presuse_distance_8_count: 1
presuse_distance_9_count: 0
presuse_distance_10_count: 0
presuse_distance_11_count: 0
presuse_distance_12_count: 0
presuse_distance_13_count: 1
presuse_distance_14_count: 0
presuse_distance_15_count: 0
presuse_distance_16_count: 0
presuse_distance_17_count: 0
presuse_distance_18_count: 0
presuse_distance_19_count: 0
presuse_distance_20_count: 0
presuse_distance_21_count: 0
presuse_distance_22_count: 0
presuse_distance_23_count: 0
presuse_distance_24_count: 0
presuse_distance_25_count: 0
presuse_distance_26_count: 0
presuse_distance_27_count: 0
presuse_distance_28_count: 0
presuse_distance_29_count: 0
presuse_distance_30_count: 0
presuse_distance_31_count: 0
presuse_distance_32_count: 0
presuse_distance_33_count: 0
presuse_distance_34_count: 0
presuse_distance_35_count: 0
presuse_distance_36_count: 0
presuse_distance_37_count: 0
presuse_distance_38_count: 0
presuse_distance_39_count: 0
presuse_distance_40_count: 0
presuse_distance_41_count: 0
presuse_distance_42_count: 0
presuse_distance_43_count: 0
presuse_distance_44_count: 0
presuse_distance_45_count: 0
presuse_distance_46_count: 0
presuse_distance_47_count: 0
presuse_distance_48_count: 0
presuse_distance_49_count: 0
presuse_distance_50_count: 0
presuse_distance_51_count: 0
presuse_distance_52_count: 0
presuse_distance_53_count: 0
presuse_distance_54_count: 0
presuse_distance_55_count: 0
presuse_distance_56_count: 0
presuse_distance_57_count: 0
presuse_distance_58_count: 0
presuse_distance_59_count: 0
presuse_distance_60_count: 0
presuse_distance_61_count: 0
presuse_distance_62_count: 0
presuse_distance_63_count: 0
presuse_distance_64_count: 0
presuse_distance_larger_than_64_count: 0
Channel_0_RQ_row_buffer_hit 84472
Channel_0_RQ_row_buffer_miss 1127240
Channel_0_WQ_row_buffer_hit 291458
Channel_0_WQ_row_buffer_miss 110224
Channel_0_WQ_full 0
Channel_0_dbus_congested 618545

avg_congested_cycle 10

DRAM_bw_pochs 0
DRAM_bw_level_0 0
DRAM_bw_level_1 0
DRAM_bw_level_2 0
DRAM_bw_level_3 0
LLC_cal_level_0 4704
LLC_cal_level_1 10
LLC_cal_level_2 0
LLC_cal_level_3 0
*************************************************
   ChampSim Multicore Out-of-Order Simulator
   Last compiled: Aug 25 2022 21:58:01
*************************************************
 DRAM access latency: 170
Off-chip DRAM Size: 4096 MB Channels: 1 Width: 64-bit Data Rate: 2400 MT/s
 DRAM_DBUS_RETURN_TIME: 13

trace_0 /home/cc/champsim/traces/657.xz_s-2302B.champsimtrace.xz
Initialize PREUSE state
llc_initialize_replacement complete 
warmup_instructions 10000000
simulation_instructions 50000000
champsim_seed 265

num_cpus 1
cpu_freq 4000
dram_io_freq 2400
page_size 4096
block_size 64
max_read_per_cycle 20
max_fill_per_cycle 20
dram_channels 1
dram_ranks 1
dram_banks 8
dram_rows 65536
dram_columns 128
dram_row_size 8
dram_size 4096
dram_pages 1048576

fetch_width 20
decode_width 20
exec_width 20
lq_width 20
sq_width 20
retire_width 20
scheduler_size 128
branch_mispredict_penalty 20
rob_size 256
lq_size 72
sq_size 56
num_instr_destinations_sparc 4
num_instr_destinations 2
num_instr_sources 4

itlb_set 16
itlb_way 8
itlb_rq_size 16
itlb_wq_size 16
itlb_pq_size 0
itlb_mshr_size 8
itlb_latency 1

dtlb_set 16
dtlb_way 4
dtlb_rq_size 16
dtlb_wq_size 16
dtlb_pq_size 0
dtlb_mshr_size 8
dtlb_latency 1

stlb_set 128
stlb_way 12
stlb_rq_size 32
stlb_wq_size 32
stlb_pq_size 0
stlb_mshr_size 16
stlb_latency 8

l1i_size 32
l1i_set 64
l1i_way 8
l1i_rq_size 64
l1i_wq_size 64
l1i_pq_size 8
l1i_mshr_size 8
l1i_latency 1

l1d_size 32
l1d_set 64
l1d_way 8
l1d_rq_size 64
l1d_wq_size 64
l1d_pq_size 8
l1d_mshr_size 16
l1d_latency 4

l2c_size 256
l2c_set 512
l2c_way 8
l2c_rq_size 32
l2c_wq_size 32
l2c_pq_size 16
l2c_mshr_size 32
l2c_latency 10

llc_size 2048
llc_set 2048
llc_way 16
llc_rq_size 32
llc_wq_size 32
llc_pq_size 32
llc_mshr_size 64
llc_latency 20

dram_channel_width 8
dram_wq_size 64
dram_rq_size 64
tRP 15
tRCD 15
tCAS 12.5
dram_dbus_turn_around_time 30
dram_write_high_wm 56
dram_write_low_wm 48
min_dram_writes_per_switch 16
dram_mtps 2400
dram_dbus_return_time 13


Heartbeat CPU  0 instructions:    1000002 cycles:     639914 heartbeat IPC: 1.56271 cumulative IPC: 1.56271 (Simulation time: 0 hr 0 min 1 sec) 
Heartbeat CPU  0 instructions:    2000004 cycles:    1254314 heartbeat IPC: 1.62761 cumulative IPC: 1.59450 (Simulation time: 0 hr 0 min 2 sec) 
Heartbeat CPU  0 instructions:    3000013 cycles:    1858950 heartbeat IPC: 1.65390 cumulative IPC: 1.61382 (Simulation time: 0 hr 0 min 3 sec) 
Heartbeat CPU  0 instructions:    4000000 cycles:    2462979 heartbeat IPC: 1.65553 cumulative IPC: 1.62405 (Simulation time: 0 hr 0 min 4 sec) 
Heartbeat CPU  0 instructions:    5000018 cycles:    3067744 heartbeat IPC: 1.65356 cumulative IPC: 1.62987 (Simulation time: 0 hr 0 min 5 sec) 
Heartbeat CPU  0 instructions:    6000001 cycles:    3669223 heartbeat IPC: 1.66254 cumulative IPC: 1.63522 (Simulation time: 0 hr 0 min 6 sec) 
Heartbeat CPU  0 instructions:    7000018 cycles:    4254216 heartbeat IPC: 1.70945 cumulative IPC: 1.64543 (Simulation time: 0 hr 0 min 7 sec) 
Heartbeat CPU  0 instructions:    8000000 cycles:    4845539 heartbeat IPC: 1.69109 cumulative IPC: 1.65100 (Simulation time: 0 hr 0 min 9 sec) 
Heartbeat CPU  0 instructions:    9000009 cycles:    5449383 heartbeat IPC: 1.65607 cumulative IPC: 1.65156 (Simulation time: 0 hr 0 min 10 sec) 
Heartbeat CPU  0 instructions:   10000002 cycles:    6046383 heartbeat IPC: 1.67503 cumulative IPC: 1.65388 (Simulation time: 0 hr 0 min 11 sec) 

Warmup complete CPU  0 instructions:   10000002 cycles:    6046383 (Simulation time: 0 hr 0 min 11 sec) 

Heartbeat CPU  0 instructions:   11000000 cycles:    7623352 heartbeat IPC: 0.63413 cumulative IPC: 0.63413 (Simulation time: 0 hr 0 min 13 sec) 
Heartbeat CPU  0 instructions:   12000000 cycles:    9262865 heartbeat IPC: 0.60994 cumulative IPC: 0.62180 (Simulation time: 0 hr 0 min 15 sec) 
Heartbeat CPU  0 instructions:   13000002 cycles:   10895473 heartbeat IPC: 0.61252 cumulative IPC: 0.61867 (Simulation time: 0 hr 0 min 16 sec) 
Heartbeat CPU  0 instructions:   14000000 cycles:   12494657 heartbeat IPC: 0.62532 cumulative IPC: 0.62032 (Simulation time: 0 hr 0 min 18 sec) 
Heartbeat CPU  0 instructions:   15000000 cycles:   14196775 heartbeat IPC: 0.58750 cumulative IPC: 0.61347 (Simulation time: 0 hr 0 min 20 sec) 
Heartbeat CPU  0 instructions:   16000000 cycles:   15940484 heartbeat IPC: 0.57349 cumulative IPC: 0.60642 (Simulation time: 0 hr 0 min 22 sec) 
Heartbeat CPU  0 instructions:   17000000 cycles:   17673296 heartbeat IPC: 0.57710 cumulative IPC: 0.60205 (Simulation time: 0 hr 0 min 24 sec) 
Heartbeat CPU  0 instructions:   18000011 cycles:   19325411 heartbeat IPC: 0.60529 cumulative IPC: 0.60245 (Simulation time: 0 hr 0 min 26 sec) 
Heartbeat CPU  0 instructions:   19000001 cycles:   20934692 heartbeat IPC: 0.62139 cumulative IPC: 0.60450 (Simulation time: 0 hr 0 min 28 sec) 
Heartbeat CPU  0 instructions:   20000000 cycles:   22504834 heartbeat IPC: 0.63688 cumulative IPC: 0.60759 (Simulation time: 0 hr 0 min 30 sec) 
Heartbeat CPU  0 instructions:   21000004 cycles:   24623574 heartbeat IPC: 0.47198 cumulative IPC: 0.59212 (Simulation time: 0 hr 0 min 32 sec) 
Heartbeat CPU  0 instructions:   22000006 cycles:   26190954 heartbeat IPC: 0.63801 cumulative IPC: 0.59569 (Simulation time: 0 hr 0 min 34 sec) 
Heartbeat CPU  0 instructions:   23000015 cycles:   27862230 heartbeat IPC: 0.59835 cumulative IPC: 0.59590 (Simulation time: 0 hr 0 min 35 sec) 
Heartbeat CPU  0 instructions:   24000000 cycles:   29589122 heartbeat IPC: 0.57907 cumulative IPC: 0.59466 (Simulation time: 0 hr 0 min 37 sec) 
Heartbeat CPU  0 instructions:   25000000 cycles:   31296492 heartbeat IPC: 0.58570 cumulative IPC: 0.59406 (Simulation time: 0 hr 0 min 39 sec) 
Heartbeat CPU  0 instructions:   26000001 cycles:   32927964 heartbeat IPC: 0.61294 cumulative IPC: 0.59520 (Simulation time: 0 hr 0 min 41 sec) 
Heartbeat CPU  0 instructions:   27000002 cycles:   34482920 heartbeat IPC: 0.64311 cumulative IPC: 0.59782 (Simulation time: 0 hr 0 min 43 sec) 
Heartbeat CPU  0 instructions:   28000000 cycles:   36259584 heartbeat IPC: 0.56285 cumulative IPC: 0.59577 (Simulation time: 0 hr 0 min 45 sec) 
Heartbeat CPU  0 instructions:   29000003 cycles:   37985125 heartbeat IPC: 0.57953 cumulative IPC: 0.59489 (Simulation time: 0 hr 0 min 46 sec) 
Heartbeat CPU  0 instructions:   30000008 cycles:   39689154 heartbeat IPC: 0.58685 cumulative IPC: 0.59448 (Simulation time: 0 hr 0 min 48 sec) 
Heartbeat CPU  0 instructions:   31000002 cycles:   41409440 heartbeat IPC: 0.58130 cumulative IPC: 0.59384 (Simulation time: 0 hr 0 min 50 sec) 
Heartbeat CPU  0 instructions:   32000000 cycles:   43186767 heartbeat IPC: 0.56264 cumulative IPC: 0.59235 (Simulation time: 0 hr 0 min 52 sec) 
Heartbeat CPU  0 instructions:   33000000 cycles:   44858658 heartbeat IPC: 0.59813 cumulative IPC: 0.59260 (Simulation time: 0 hr 0 min 54 sec) 
Heartbeat CPU  0 instructions:   34000000 cycles:   46582992 heartbeat IPC: 0.57993 cumulative IPC: 0.59206 (Simulation time: 0 hr 0 min 55 sec) 
Heartbeat CPU  0 instructions:   35000007 cycles:   48393487 heartbeat IPC: 0.55234 cumulative IPC: 0.59036 (Simulation time: 0 hr 0 min 57 sec) 
Heartbeat CPU  0 instructions:   36000000 cycles:   50043573 heartbeat IPC: 0.60602 cumulative IPC: 0.59095 (Simulation time: 0 hr 0 min 59 sec) 
Heartbeat CPU  0 instructions:   37000004 cycles:   51745609 heartbeat IPC: 0.58753 cumulative IPC: 0.59082 (Simulation time: 0 hr 1 min 1 sec) 
Heartbeat CPU  0 instructions:   38000004 cycles:   53457070 heartbeat IPC: 0.58430 cumulative IPC: 0.59058 (Simulation time: 0 hr 1 min 2 sec) 
Heartbeat CPU  0 instructions:   39000001 cycles:   55116711 heartbeat IPC: 0.60254 cumulative IPC: 0.59099 (Simulation time: 0 hr 1 min 4 sec) 
Heartbeat CPU  0 instructions:   40000000 cycles:   56767142 heartbeat IPC: 0.60590 cumulative IPC: 0.59147 (Simulation time: 0 hr 1 min 6 sec) 
Heartbeat CPU  0 instructions:   41000004 cycles:   58513242 heartbeat IPC: 0.57271 cumulative IPC: 0.59085 (Simulation time: 0 hr 1 min 8 sec) 
Heartbeat CPU  0 instructions:   42000000 cycles:   60218487 heartbeat IPC: 0.58642 cumulative IPC: 0.59071 (Simulation time: 0 hr 1 min 10 sec) 
Heartbeat CPU  0 instructions:   43000000 cycles:   61917675 heartbeat IPC: 0.58852 cumulative IPC: 0.59064 (Simulation time: 0 hr 1 min 11 sec) 
Heartbeat CPU  0 instructions:   44000000 cycles:   63744652 heartbeat IPC: 0.54735 cumulative IPC: 0.58927 (Simulation time: 0 hr 1 min 13 sec) 
Heartbeat CPU  0 instructions:   45000000 cycles:   65438102 heartbeat IPC: 0.59051 cumulative IPC: 0.58931 (Simulation time: 0 hr 1 min 15 sec) 
Heartbeat CPU  0 instructions:   46000003 cycles:   67171922 heartbeat IPC: 0.57676 cumulative IPC: 0.58895 (Simulation time: 0 hr 1 min 17 sec) 
Heartbeat CPU  0 instructions:   47000016 cycles:   68935426 heartbeat IPC: 0.56706 cumulative IPC: 0.58834 (Simulation time: 0 hr 1 min 18 sec) 
Heartbeat CPU  0 instructions:   48000000 cycles:   70617830 heartbeat IPC: 0.59438 cumulative IPC: 0.58850 (Simulation time: 0 hr 1 min 20 sec) 
Heartbeat CPU  0 instructions:   49000002 cycles:   72240396 heartbeat IPC: 0.61631 cumulative IPC: 0.58918 (Simulation time: 0 hr 1 min 22 sec) 
Heartbeat CPU  0 instructions:   50000007 cycles:   73984140 heartbeat IPC: 0.57348 cumulative IPC: 0.58877 (Simulation time: 0 hr 1 min 24 sec) 
Heartbeat CPU  0 instructions:   51000001 cycles:   75706513 heartbeat IPC: 0.58059 cumulative IPC: 0.58857 (Simulation time: 0 hr 1 min 26 sec) 
Heartbeat CPU  0 instructions:   52000000 cycles:   77415947 heartbeat IPC: 0.58499 cumulative IPC: 0.58849 (Simulation time: 0 hr 1 min 27 sec) 
Heartbeat CPU  0 instructions:   53000003 cycles:   79150609 heartbeat IPC: 0.57648 cumulative IPC: 0.58820 (Simulation time: 0 hr 1 min 29 sec) 
Heartbeat CPU  0 instructions:   54000002 cycles:   81028254 heartbeat IPC: 0.53258 cumulative IPC: 0.58681 (Simulation time: 0 hr 1 min 31 sec) 
Heartbeat CPU  0 instructions:   55000003 cycles:   82811243 heartbeat IPC: 0.56086 cumulative IPC: 0.58621 (Simulation time: 0 hr 1 min 33 sec) 
Heartbeat CPU  0 instructions:   56000000 cycles:   84442662 heartbeat IPC: 0.61296 cumulative IPC: 0.58676 (Simulation time: 0 hr 1 min 35 sec) 
Heartbeat CPU  0 instructions:   57000006 cycles:   86272466 heartbeat IPC: 0.54651 cumulative IPC: 0.58584 (Simulation time: 0 hr 1 min 36 sec) 
Heartbeat CPU  0 instructions:   58000001 cycles:   87936022 heartbeat IPC: 0.60112 cumulative IPC: 0.58615 (Simulation time: 0 hr 1 min 38 sec) 
Heartbeat CPU  0 instructions:   59000005 cycles:   89679806 heartbeat IPC: 0.57347 cumulative IPC: 0.58589 (Simulation time: 0 hr 1 min 40 sec) 
Heartbeat CPU  0 instructions:   60000000 cycles:   91416921 heartbeat IPC: 0.57566 cumulative IPC: 0.58568 (Simulation time: 0 hr 1 min 42 sec) 
Finished CPU 0 instructions: 50000000 cycles: 85370548 cumulative IPC: 0.58568 (Simulation time: 0 hr 1 min 42 sec) 

ChampSim completed all CPUs

[ROI Statistics]
Core_0_instructions 50000000
Core_0_cycles 85370548
Core_0_IPC 0.58568

Core_0_branch_prediction_accuracy 89.37599
Core_0_branch_MPKI 13.59306
Core_0_average_ROB_occupancy_at_mispredict 66.76888

Core_0_L1D_total_access 10440756
Core_0_L1D_total_hit 10062550
Core_0_L1D_total_miss_isca 378206
Core_0_L1D_total_overlap_miss 0
Core_0_L1D_loads 6637739
Core_0_L1D_load_hit 6304948
Core_0_L1D_load_miss 332791
Core_0_L1D_RFOs 3803017
Core_0_L1D_RFO_hit 3757602
Core_0_L1D_RFO_miss 45415
Core_0_L1D_prefetches 0
Core_0_L1D_prefetch_hit 0
Core_0_L1D_prefetch_miss 0
Core_0_L1D_writebacks 0
Core_0_L1D_writeback_hit 0
Core_0_L1D_writeback_miss 0
Core_0_L1D_miss_rate 0.03622
Core_0_L1D_MPKI 7.56412
Core_0_L1D_demand_miss 378206
Core_0_L1D_prefetch_requested 0
Core_0_L1D_prefetch_issued 0
Core_0_L1D_prefetch_useful 0
Core_0_L1D_prefetch_useless 0
Core_0_L1D_prefetch_late 0
Core_0_L1D_average_miss_latency 147.36410

Replacement_count: 0
Bypassing_count: 0
Core_0_L1I_total_access 6143947
Core_0_L1I_total_hit 6143846
Core_0_L1I_total_miss_isca 101
Core_0_L1I_total_overlap_miss 0
Core_0_L1I_loads 6143947
Core_0_L1I_load_hit 6143846
Core_0_L1I_load_miss 101
Core_0_L1I_RFOs 0
Core_0_L1I_RFO_hit 0
Core_0_L1I_RFO_miss 0
Core_0_L1I_prefetches 0
Core_0_L1I_prefetch_hit 0
Core_0_L1I_prefetch_miss 0
Core_0_L1I_writebacks 0
Core_0_L1I_writeback_hit 0
Core_0_L1I_writeback_miss 0
Core_0_L1I_miss_rate 0.00002
Core_0_L1I_MPKI 0.00202
Core_0_L1I_demand_miss 101
Core_0_L1I_prefetch_requested 0
Core_0_L1I_prefetch_issued 0
Core_0_L1I_prefetch_useful 0
Core_0_L1I_prefetch_useless 0
Core_0_L1I_prefetch_late 0
Core_0_L1I_average_miss_latency 244.00000

Replacement_count: 0
Bypassing_count: 0
Core_0_L2C_total_access 617844
Core_0_L2C_total_hit 402079
Core_0_L2C_total_miss_isca 215765
Core_0_L2C_total_overlap_miss 0
Core_0_L2C_loads 332876
Core_0_L2C_load_hit 134751
Core_0_L2C_load_miss 198125
Core_0_L2C_RFOs 45394
Core_0_L2C_RFO_hit 28380
Core_0_L2C_RFO_miss 17014
Core_0_L2C_prefetches 0
Core_0_L2C_prefetch_hit 0
Core_0_L2C_prefetch_miss 0
Core_0_L2C_writebacks 239574
Core_0_L2C_writeback_hit 238948
Core_0_L2C_writeback_miss 626
Core_0_L2C_miss_rate 0.34922
Core_0_L2C_MPKI 4.31530
Core_0_L2C_demand_miss 215765
Core_0_L2C_prefetch_requested 0
Core_0_L2C_prefetch_issued 0
Core_0_L2C_prefetch_useful 0
Core_0_L2C_prefetch_useless 0
Core_0_L2C_prefetch_late 0
Core_0_L2C_average_miss_latency 202.42091

Replacement_count: 0
Bypassing_count: 0
Core_0_LLC_total_access 362681
Core_0_LLC_total_hit 283601
Core_0_LLC_total_miss_isca 79080
Core_0_LLC_total_overlap_miss 0
Core_0_LLC_loads 198125
Core_0_LLC_load_hit 127543
Core_0_LLC_load_miss 70582
Core_0_LLC_RFOs 17014
Core_0_LLC_RFO_hit 8795
Core_0_LLC_RFO_miss 8219
Core_0_LLC_prefetches 0
Core_0_LLC_prefetch_hit 0
Core_0_LLC_prefetch_miss 0
Core_0_LLC_writebacks 147542
Core_0_LLC_writeback_hit 147263
Core_0_LLC_writeback_miss 279
Core_0_LLC_miss_rate 0.21804
Core_0_LLC_MPKI 1.58160
Core_0_LLC_demand_miss 79080
Core_0_LLC_prefetch_requested 0
Core_0_LLC_prefetch_issued 0
Core_0_LLC_prefetch_useful 0
Core_0_LLC_prefetch_useless 0
Core_0_LLC_prefetch_late 0
Core_0_LLC_average_miss_latency 385.91315

Replacement_count: 0
Bypassing_count: 0
Core_0_major_page_fault 0
Core_0_minor_page_fault 6437


demand_hit_count: 136338
presuse_distance_0_count: 0
presuse_distance_1_count: 4222
presuse_distance_2_count: 9863
presuse_distance_3_count: 13957
presuse_distance_4_count: 14298
presuse_distance_5_count: 12833
presuse_distance_6_count: 10775
presuse_distance_7_count: 9268
presuse_distance_8_count: 7656
presuse_distance_9_count: 6448
presuse_distance_10_count: 5554
presuse_distance_11_count: 4821
presuse_distance_12_count: 4248
presuse_distance_13_count: 3779
presuse_distance_14_count: 3300
presuse_distance_15_count: 3087
presuse_distance_16_count: 2838
presuse_distance_17_count: 2544
presuse_distance_18_count: 2354
presuse_distance_19_count: 2091
presuse_distance_20_count: 1840
presuse_distance_21_count: 1629
presuse_distance_22_count: 1388
presuse_distance_23_count: 1231
presuse_distance_24_count: 1084
presuse_distance_25_count: 927
presuse_distance_26_count: 764
presuse_distance_27_count: 610
presuse_distance_28_count: 553
presuse_distance_29_count: 434
presuse_distance_30_count: 338
presuse_distance_31_count: 297
presuse_distance_32_count: 255
presuse_distance_33_count: 188
presuse_distance_34_count: 191
presuse_distance_35_count: 114
presuse_distance_36_count: 100
presuse_distance_37_count: 77
presuse_distance_38_count: 76
presuse_distance_39_count: 58
presuse_distance_40_count: 59
presuse_distance_41_count: 36
presuse_distance_42_count: 24
presuse_distance_43_count: 21
presuse_distance_44_count: 19
presuse_distance_45_count: 11
presuse_distance_46_count: 15
presuse_distance_47_count: 16
presuse_distance_48_count: 5
presuse_distance_49_count: 3
presuse_distance_50_count: 6
presuse_distance_51_count: 7
presuse_distance_52_count: 9
presuse_distance_53_count: 1
presuse_distance_54_count: 3
presuse_distance_55_count: 1
presuse_distance_56_count: 5
presuse_distance_57_count: 0
presuse_distance_58_count: 2
presuse_distance_59_count: 2
presuse_distance_60_count: 1
presuse_distance_61_count: 0
presuse_distance_62_count: 1
presuse_distance_63_count: 1
presuse_distance_64_count: 0
presuse_distance_larger_than_64_count: 0
Channel_0_RQ_row_buffer_hit 1420
Channel_0_RQ_row_buffer_miss 77381
Channel_0_WQ_row_buffer_hit 5345
Channel_0_WQ_row_buffer_miss 50412
Channel_0_WQ_full 0
Channel_0_dbus_congested 11633

avg_congested_cycle 9

DRAM_bw_pochs 0
DRAM_bw_level_0 0
DRAM_bw_level_1 0
DRAM_bw_level_2 0
DRAM_bw_level_3 0
LLC_cal_level_0 135
LLC_cal_level_1 171
LLC_cal_level_2 0
LLC_cal_level_3 0
