*************************************************
   ChampSim Multicore Out-of-Order Simulator
   Last compiled: Aug 26 2022 02:11:32
*************************************************
 DRAM access latency: 170
Off-chip DRAM Size: 4096 MB Channels: 1 Width: 64-bit Data Rate: 2400 MT/s
 DRAM_DBUS_RETURN_TIME: 13

trace_0 /home/cc/champsim/traces/401.bzip2-277B.champsimtrace.xz
trace_1 /home/cc/champsim/traces/401.bzip2-277B.champsimtrace.xz
trace_2 /home/cc/champsim/traces/401.bzip2-277B.champsimtrace.xz
trace_3 /home/cc/champsim/traces/401.bzip2-277B.champsimtrace.xz
Initialize PREUSE state
llc_initialize_replacement complete 
warmup_instructions 10000000
simulation_instructions 50000000
champsim_seed 904

num_cpus 4
cpu_freq 4000
dram_io_freq 2400
page_size 4096
block_size 64
max_read_per_cycle 20
max_fill_per_cycle 20
dram_channels 1
dram_ranks 1
dram_banks 8
dram_rows 65536
dram_columns 128
dram_row_size 8
dram_size 4096
dram_pages 1048576

fetch_width 20
decode_width 20
exec_width 20
lq_width 20
sq_width 20
retire_width 20
scheduler_size 128
branch_mispredict_penalty 20
rob_size 256
lq_size 72
sq_size 56
num_instr_destinations_sparc 4
num_instr_destinations 2
num_instr_sources 4

itlb_set 16
itlb_way 8
itlb_rq_size 16
itlb_wq_size 16
itlb_pq_size 0
itlb_mshr_size 8
itlb_latency 1

dtlb_set 16
dtlb_way 4
dtlb_rq_size 16
dtlb_wq_size 16
dtlb_pq_size 0
dtlb_mshr_size 8
dtlb_latency 1

stlb_set 128
stlb_way 12
stlb_rq_size 32
stlb_wq_size 32
stlb_pq_size 0
stlb_mshr_size 16
stlb_latency 8

l1i_size 32
l1i_set 64
l1i_way 8
l1i_rq_size 64
l1i_wq_size 64
l1i_pq_size 8
l1i_mshr_size 8
l1i_latency 1

l1d_size 32
l1d_set 64
l1d_way 8
l1d_rq_size 64
l1d_wq_size 64
l1d_pq_size 8
l1d_mshr_size 16
l1d_latency 4

l2c_size 256
l2c_set 512
l2c_way 8
l2c_rq_size 32
l2c_wq_size 32
l2c_pq_size 16
l2c_mshr_size 32
l2c_latency 10

llc_size 8192
llc_set 8192
llc_way 16
llc_rq_size 128
llc_wq_size 128
llc_pq_size 128
llc_mshr_size 256
llc_latency 20

dram_channel_width 8
dram_wq_size 64
dram_rq_size 64
tRP 15
tRCD 15
tCAS 12.5
dram_dbus_turn_around_time 30
dram_write_high_wm 56
dram_write_low_wm 48
min_dram_writes_per_switch 16
dram_mtps 2400
dram_dbus_return_time 13


Heartbeat CPU  0 instructions:    1000006 cycles:     236340 heartbeat IPC: 4.23122 cumulative IPC: 4.23122 (Simulation time: 0 hr 0 min 4 sec) 
Heartbeat CPU  1 instructions:    1000006 cycles:     236412 heartbeat IPC: 4.22993 cumulative IPC: 4.22993 (Simulation time: 0 hr 0 min 4 sec) 
Heartbeat CPU  2 instructions:    1000006 cycles:     236538 heartbeat IPC: 4.22768 cumulative IPC: 4.22768 (Simulation time: 0 hr 0 min 4 sec) 
Heartbeat CPU  3 instructions:    1000006 cycles:     236615 heartbeat IPC: 4.22630 cumulative IPC: 4.22630 (Simulation time: 0 hr 0 min 4 sec) 
Heartbeat CPU  0 instructions:    2000006 cycles:     474456 heartbeat IPC: 4.19963 cumulative IPC: 4.21537 (Simulation time: 0 hr 0 min 8 sec) 
Heartbeat CPU  1 instructions:    2000006 cycles:     474534 heartbeat IPC: 4.19953 cumulative IPC: 4.21467 (Simulation time: 0 hr 0 min 8 sec) 
Heartbeat CPU  2 instructions:    2000006 cycles:     474692 heartbeat IPC: 4.19896 cumulative IPC: 4.21327 (Simulation time: 0 hr 0 min 8 sec) 
Heartbeat CPU  3 instructions:    2000006 cycles:     474783 heartbeat IPC: 4.19872 cumulative IPC: 4.21246 (Simulation time: 0 hr 0 min 8 sec) 
Heartbeat CPU  0 instructions:    3000008 cycles:     728628 heartbeat IPC: 3.93435 cumulative IPC: 4.11734 (Simulation time: 0 hr 0 min 13 sec) 
Heartbeat CPU  1 instructions:    3000008 cycles:     728734 heartbeat IPC: 3.93392 cumulative IPC: 4.11674 (Simulation time: 0 hr 0 min 13 sec) 
Heartbeat CPU  2 instructions:    3000008 cycles:     728895 heartbeat IPC: 3.93387 cumulative IPC: 4.11583 (Simulation time: 0 hr 0 min 13 sec) 
Heartbeat CPU  3 instructions:    3000008 cycles:     728969 heartbeat IPC: 3.93413 cumulative IPC: 4.11541 (Simulation time: 0 hr 0 min 13 sec) 
Heartbeat CPU  0 instructions:    4000000 cycles:     979466 heartbeat IPC: 3.98660 cumulative IPC: 4.08386 (Simulation time: 0 hr 0 min 17 sec) 
Heartbeat CPU  1 instructions:    4000000 cycles:     979594 heartbeat IPC: 3.98626 cumulative IPC: 4.08332 (Simulation time: 0 hr 0 min 17 sec) 
Heartbeat CPU  2 instructions:    4000000 cycles:     979759 heartbeat IPC: 3.98619 cumulative IPC: 4.08264 (Simulation time: 0 hr 0 min 17 sec) 
Heartbeat CPU  3 instructions:    4000000 cycles:     979809 heartbeat IPC: 3.98657 cumulative IPC: 4.08243 (Simulation time: 0 hr 0 min 17 sec) 
Heartbeat CPU  0 instructions:    5000007 cycles:    1258832 heartbeat IPC: 3.57956 cumulative IPC: 3.97194 (Simulation time: 0 hr 0 min 21 sec) 
Heartbeat CPU  1 instructions:    5000007 cycles:    1258968 heartbeat IPC: 3.57946 cumulative IPC: 3.97151 (Simulation time: 0 hr 0 min 21 sec) 
Heartbeat CPU  2 instructions:    5000007 cycles:    1259149 heartbeat IPC: 3.57925 cumulative IPC: 3.97094 (Simulation time: 0 hr 0 min 21 sec) 
Heartbeat CPU  3 instructions:    5000007 cycles:    1259215 heartbeat IPC: 3.57905 cumulative IPC: 3.97073 (Simulation time: 0 hr 0 min 21 sec) 
Heartbeat CPU  0 instructions:    6000008 cycles:    1531878 heartbeat IPC: 3.66239 cumulative IPC: 3.91677 (Simulation time: 0 hr 0 min 24 sec) 
Heartbeat CPU  1 instructions:    6000008 cycles:    1532059 heartbeat IPC: 3.66179 cumulative IPC: 3.91630 (Simulation time: 0 hr 0 min 24 sec) 
Heartbeat CPU  2 instructions:    6000008 cycles:    1532231 heartbeat IPC: 3.66191 cumulative IPC: 3.91586 (Simulation time: 0 hr 0 min 24 sec) 
Heartbeat CPU  3 instructions:    6000008 cycles:    1532300 heartbeat IPC: 3.66187 cumulative IPC: 3.91569 (Simulation time: 0 hr 0 min 24 sec) 
Heartbeat CPU  0 instructions:    7000012 cycles:    1776456 heartbeat IPC: 4.08869 cumulative IPC: 3.94044 (Simulation time: 0 hr 0 min 29 sec) 
Heartbeat CPU  1 instructions:    7000012 cycles:    1776658 heartbeat IPC: 4.08834 cumulative IPC: 3.93999 (Simulation time: 0 hr 0 min 29 sec) 
Heartbeat CPU  2 instructions:    7000012 cycles:    1776829 heartbeat IPC: 4.08836 cumulative IPC: 3.93961 (Simulation time: 0 hr 0 min 29 sec) 
Heartbeat CPU  3 instructions:    7000012 cycles:    1776882 heartbeat IPC: 4.08862 cumulative IPC: 3.93949 (Simulation time: 0 hr 0 min 29 sec) 
Heartbeat CPU  0 instructions:    8000000 cycles:    2033465 heartbeat IPC: 3.89087 cumulative IPC: 3.93417 (Simulation time: 0 hr 0 min 33 sec) 
Heartbeat CPU  1 instructions:    8000000 cycles:    2033714 heartbeat IPC: 3.89016 cumulative IPC: 3.93369 (Simulation time: 0 hr 0 min 33 sec) 
Heartbeat CPU  2 instructions:    8000000 cycles:    2033894 heartbeat IPC: 3.89002 cumulative IPC: 3.93334 (Simulation time: 0 hr 0 min 33 sec) 
Heartbeat CPU  3 instructions:    8000000 cycles:    2033942 heartbeat IPC: 3.89010 cumulative IPC: 3.93325 (Simulation time: 0 hr 0 min 33 sec) 
Heartbeat CPU  0 instructions:    9000000 cycles:    2309502 heartbeat IPC: 3.62270 cumulative IPC: 3.89694 (Simulation time: 0 hr 0 min 37 sec) 
Heartbeat CPU  1 instructions:    9000005 cycles:    2309699 heartbeat IPC: 3.62340 cumulative IPC: 3.89661 (Simulation time: 0 hr 0 min 37 sec) 
Heartbeat CPU  2 instructions:    9000005 cycles:    2309860 heartbeat IPC: 3.62365 cumulative IPC: 3.89634 (Simulation time: 0 hr 0 min 37 sec) 
Heartbeat CPU  3 instructions:    9000005 cycles:    2310011 heartbeat IPC: 3.62230 cumulative IPC: 3.89609 (Simulation time: 0 hr 0 min 37 sec) 
Heartbeat CPU  0 instructions:   10000003 cycles:    2564203 heartbeat IPC: 3.92618 cumulative IPC: 3.89985 (Simulation time: 0 hr 0 min 41 sec) 
Heartbeat CPU  1 instructions:   10000003 cycles:    2564402 heartbeat IPC: 3.92613 cumulative IPC: 3.89955 (Simulation time: 0 hr 0 min 41 sec) 
Heartbeat CPU  2 instructions:   10000003 cycles:    2564595 heartbeat IPC: 3.92564 cumulative IPC: 3.89925 (Simulation time: 0 hr 0 min 41 sec) 
Heartbeat CPU  3 instructions:   10000003 cycles:    2564740 heartbeat IPC: 3.92573 cumulative IPC: 3.89903 (Simulation time: 0 hr 0 min 41 sec) 

Warmup complete CPU  0 instructions:   10001858 cycles:    2564740 (Simulation time: 0 hr 0 min 41 sec) 
Warmup complete CPU  1 instructions:   10001405 cycles:    2564740 (Simulation time: 0 hr 0 min 41 sec) 
Warmup complete CPU  2 instructions:   10000591 cycles:    2564740 (Simulation time: 0 hr 0 min 41 sec) 
Warmup complete CPU  3 instructions:   10000003 cycles:    2564740 (Simulation time: 0 hr 0 min 41 sec) 

Heartbeat CPU  1 instructions:   11000017 cycles:    3963780 heartbeat IPC: 0.71461 cumulative IPC: 0.71378 (Simulation time: 0 hr 0 min 49 sec) 
Heartbeat CPU  0 instructions:   11000017 cycles:    3969531 heartbeat IPC: 0.71159 cumulative IPC: 0.71054 (Simulation time: 0 hr 0 min 49 sec) 
Heartbeat CPU  2 instructions:   11000017 cycles:    3970751 heartbeat IPC: 0.71117 cumulative IPC: 0.71082 (Simulation time: 0 hr 0 min 49 sec) 
Heartbeat CPU  3 instructions:   11000017 cycles:    3974833 heartbeat IPC: 0.70918 cumulative IPC: 0.70918 (Simulation time: 0 hr 0 min 49 sec) 
Heartbeat CPU  1 instructions:   12000000 cycles:    5259666 heartbeat IPC: 0.77166 cumulative IPC: 0.74161 (Simulation time: 0 hr 0 min 57 sec) 
Heartbeat CPU  2 instructions:   12000000 cycles:    5264353 heartbeat IPC: 0.77302 cumulative IPC: 0.74063 (Simulation time: 0 hr 0 min 57 sec) 
Heartbeat CPU  3 instructions:   12000000 cycles:    5266388 heartbeat IPC: 0.77425 cumulative IPC: 0.74029 (Simulation time: 0 hr 0 min 57 sec) 
Heartbeat CPU  0 instructions:   12000000 cycles:    5267901 heartbeat IPC: 0.77018 cumulative IPC: 0.73919 (Simulation time: 0 hr 0 min 57 sec) 
Heartbeat CPU  1 instructions:   13000016 cycles:    6332411 heartbeat IPC: 0.93220 cumulative IPC: 0.79588 (Simulation time: 0 hr 1 min 4 sec) 
Heartbeat CPU  2 instructions:   13000016 cycles:    6347509 heartbeat IPC: 0.92324 cumulative IPC: 0.79292 (Simulation time: 0 hr 1 min 5 sec) 
Heartbeat CPU  3 instructions:   13000016 cycles:    6350498 heartbeat IPC: 0.92243 cumulative IPC: 0.79245 (Simulation time: 0 hr 1 min 5 sec) 
Heartbeat CPU  0 instructions:   13000016 cycles:    6355683 heartbeat IPC: 0.91932 cumulative IPC: 0.79087 (Simulation time: 0 hr 1 min 5 sec) 
Heartbeat CPU  1 instructions:   14000014 cycles:    7423488 heartbeat IPC: 0.91652 cumulative IPC: 0.82297 (Simulation time: 0 hr 1 min 12 sec) 
Heartbeat CPU  2 instructions:   14000006 cycles:    7432174 heartbeat IPC: 0.92193 cumulative IPC: 0.82167 (Simulation time: 0 hr 1 min 12 sec) 
Heartbeat CPU  0 instructions:   14000014 cycles:    7441601 heartbeat IPC: 0.92088 cumulative IPC: 0.81982 (Simulation time: 0 hr 1 min 12 sec) 
Heartbeat CPU  3 instructions:   14000006 cycles:    7444359 heartbeat IPC: 0.91418 cumulative IPC: 0.81974 (Simulation time: 0 hr 1 min 12 sec) 
Heartbeat CPU  1 instructions:   15000000 cycles:    8608561 heartbeat IPC: 0.84382 cumulative IPC: 0.82706 (Simulation time: 0 hr 1 min 20 sec) 
Heartbeat CPU  2 instructions:   15000017 cycles:    8622715 heartbeat IPC: 0.83996 cumulative IPC: 0.82526 (Simulation time: 0 hr 1 min 20 sec) 
Heartbeat CPU  0 instructions:   15000000 cycles:    8634747 heartbeat IPC: 0.83811 cumulative IPC: 0.82342 (Simulation time: 0 hr 1 min 20 sec) 
Heartbeat CPU  3 instructions:   15000000 cycles:    8639011 heartbeat IPC: 0.83706 cumulative IPC: 0.82314 (Simulation time: 0 hr 1 min 20 sec) 
Heartbeat CPU  1 instructions:   16000000 cycles:    9852321 heartbeat IPC: 0.80401 cumulative IPC: 0.82313 (Simulation time: 0 hr 1 min 28 sec) 
Heartbeat CPU  2 instructions:   16000000 cycles:    9859239 heartbeat IPC: 0.80870 cumulative IPC: 0.82246 (Simulation time: 0 hr 1 min 28 sec) 
Heartbeat CPU  0 instructions:   16000000 cycles:    9880450 heartbeat IPC: 0.80276 cumulative IPC: 0.81990 (Simulation time: 0 hr 1 min 28 sec) 
Heartbeat CPU  3 instructions:   16000000 cycles:    9893464 heartbeat IPC: 0.79716 cumulative IPC: 0.81870 (Simulation time: 0 hr 1 min 28 sec) 
Heartbeat CPU  1 instructions:   17000002 cycles:   11098634 heartbeat IPC: 0.80237 cumulative IPC: 0.82009 (Simulation time: 0 hr 1 min 36 sec) 
Heartbeat CPU  2 instructions:   17000002 cycles:   11119403 heartbeat IPC: 0.79355 cumulative IPC: 0.81820 (Simulation time: 0 hr 1 min 36 sec) 
Heartbeat CPU  0 instructions:   17000002 cycles:   11130404 heartbeat IPC: 0.80003 cumulative IPC: 0.81700 (Simulation time: 0 hr 1 min 36 sec) 
Heartbeat CPU  3 instructions:   17000002 cycles:   11155996 heartbeat IPC: 0.79206 cumulative IPC: 0.81478 (Simulation time: 0 hr 1 min 36 sec) 
Heartbeat CPU  1 instructions:   18000006 cycles:   12173616 heartbeat IPC: 0.93025 cumulative IPC: 0.83242 (Simulation time: 0 hr 1 min 43 sec) 
Heartbeat CPU  2 instructions:   18000006 cycles:   12184285 heartbeat IPC: 0.93907 cumulative IPC: 0.83158 (Simulation time: 0 hr 1 min 43 sec) 
Heartbeat CPU  0 instructions:   18000006 cycles:   12202237 heartbeat IPC: 0.93298 cumulative IPC: 0.82990 (Simulation time: 0 hr 1 min 43 sec) 
Heartbeat CPU  3 instructions:   18000006 cycles:   12233464 heartbeat IPC: 0.92811 cumulative IPC: 0.82741 (Simulation time: 0 hr 1 min 43 sec) 
Heartbeat CPU  1 instructions:   19000005 cycles:   13504115 heartbeat IPC: 0.75160 cumulative IPC: 0.82259 (Simulation time: 0 hr 1 min 50 sec) 
Heartbeat CPU  2 instructions:   19000005 cycles:   13521319 heartbeat IPC: 0.74792 cumulative IPC: 0.82137 (Simulation time: 0 hr 1 min 51 sec) 
Heartbeat CPU  0 instructions:   19000005 cycles:   13531412 heartbeat IPC: 0.75235 cumulative IPC: 0.82050 (Simulation time: 0 hr 1 min 51 sec) 
Heartbeat CPU  3 instructions:   19000005 cycles:   13559881 heartbeat IPC: 0.75391 cumulative IPC: 0.81854 (Simulation time: 0 hr 1 min 51 sec) 
Heartbeat CPU  1 instructions:   20000000 cycles:   15046722 heartbeat IPC: 0.64825 cumulative IPC: 0.80104 (Simulation time: 0 hr 1 min 58 sec) 
Heartbeat CPU  2 instructions:   20000000 cycles:   15064523 heartbeat IPC: 0.64800 cumulative IPC: 0.79997 (Simulation time: 0 hr 1 min 58 sec) 
Heartbeat CPU  0 instructions:   20000000 cycles:   15073752 heartbeat IPC: 0.64836 cumulative IPC: 0.79928 (Simulation time: 0 hr 1 min 58 sec) 
Heartbeat CPU  3 instructions:   20000000 cycles:   15102605 heartbeat IPC: 0.64820 cumulative IPC: 0.79758 (Simulation time: 0 hr 1 min 58 sec) 
Heartbeat CPU  1 instructions:   21000005 cycles:   16642426 heartbeat IPC: 0.62669 cumulative IPC: 0.78128 (Simulation time: 0 hr 2 min 6 sec) 
Heartbeat CPU  2 instructions:   21000005 cycles:   16660089 heartbeat IPC: 0.62674 cumulative IPC: 0.78036 (Simulation time: 0 hr 2 min 6 sec) 
Heartbeat CPU  0 instructions:   21000005 cycles:   16668111 heartbeat IPC: 0.62721 cumulative IPC: 0.77982 (Simulation time: 0 hr 2 min 6 sec) 
Heartbeat CPU  3 instructions:   21000005 cycles:   16697294 heartbeat IPC: 0.62708 cumulative IPC: 0.77834 (Simulation time: 0 hr 2 min 6 sec) 
Heartbeat CPU  1 instructions:   22000005 cycles:   18040266 heartbeat IPC: 0.71539 cumulative IPC: 0.77533 (Simulation time: 0 hr 2 min 13 sec) 
Heartbeat CPU  2 instructions:   22000005 cycles:   18057274 heartbeat IPC: 0.71572 cumulative IPC: 0.77453 (Simulation time: 0 hr 2 min 13 sec) 
Heartbeat CPU  0 instructions:   22000005 cycles:   18065073 heartbeat IPC: 0.71584 cumulative IPC: 0.77406 (Simulation time: 0 hr 2 min 14 sec) 
Heartbeat CPU  3 instructions:   22000005 cycles:   18094670 heartbeat IPC: 0.71563 cumulative IPC: 0.77270 (Simulation time: 0 hr 2 min 14 sec) 
Heartbeat CPU  1 instructions:   23000005 cycles:   19540263 heartbeat IPC: 0.66667 cumulative IPC: 0.76573 (Simulation time: 0 hr 2 min 21 sec) 
Heartbeat CPU  2 instructions:   23000005 cycles:   19557119 heartbeat IPC: 0.66674 cumulative IPC: 0.76501 (Simulation time: 0 hr 2 min 21 sec) 
Heartbeat CPU  0 instructions:   23000005 cycles:   19564801 heartbeat IPC: 0.66679 cumulative IPC: 0.76459 (Simulation time: 0 hr 2 min 21 sec) 
Heartbeat CPU  3 instructions:   23000005 cycles:   19594609 heartbeat IPC: 0.66669 cumulative IPC: 0.76336 (Simulation time: 0 hr 2 min 21 sec) 
Heartbeat CPU  1 instructions:   24000000 cycles:   21107967 heartbeat IPC: 0.63787 cumulative IPC: 0.75492 (Simulation time: 0 hr 2 min 28 sec) 
Heartbeat CPU  2 instructions:   24000000 cycles:   21124525 heartbeat IPC: 0.63799 cumulative IPC: 0.75429 (Simulation time: 0 hr 2 min 29 sec) 
Heartbeat CPU  0 instructions:   24000000 cycles:   21132921 heartbeat IPC: 0.63770 cumulative IPC: 0.75388 (Simulation time: 0 hr 2 min 29 sec) 
Heartbeat CPU  3 instructions:   24000000 cycles:   21166076 heartbeat IPC: 0.63634 cumulative IPC: 0.75263 (Simulation time: 0 hr 2 min 29 sec) 
Heartbeat CPU  1 instructions:   25000019 cycles:   22657873 heartbeat IPC: 0.64521 cumulative IPC: 0.74645 (Simulation time: 0 hr 2 min 36 sec) 
Heartbeat CPU  2 instructions:   25000019 cycles:   22674121 heartbeat IPC: 0.64534 cumulative IPC: 0.74589 (Simulation time: 0 hr 2 min 36 sec) 
Heartbeat CPU  0 instructions:   25000019 cycles:   22682516 heartbeat IPC: 0.64534 cumulative IPC: 0.74552 (Simulation time: 0 hr 2 min 36 sec) 
Heartbeat CPU  3 instructions:   25000019 cycles:   22715732 heartbeat IPC: 0.64532 cumulative IPC: 0.74438 (Simulation time: 0 hr 2 min 36 sec) 
Heartbeat CPU  1 instructions:   26000002 cycles:   24268609 heartbeat IPC: 0.62082 cumulative IPC: 0.73713 (Simulation time: 0 hr 2 min 44 sec) 
Heartbeat CPU  2 instructions:   26000002 cycles:   24285074 heartbeat IPC: 0.62074 cumulative IPC: 0.73661 (Simulation time: 0 hr 2 min 44 sec) 
Heartbeat CPU  0 instructions:   26000002 cycles:   24291447 heartbeat IPC: 0.62152 cumulative IPC: 0.73634 (Simulation time: 0 hr 2 min 44 sec) 
Heartbeat CPU  3 instructions:   26000002 cycles:   24324928 heartbeat IPC: 0.62142 cumulative IPC: 0.73529 (Simulation time: 0 hr 2 min 44 sec) 
Heartbeat CPU  1 instructions:   27000004 cycles:   25896995 heartbeat IPC: 0.61411 cumulative IPC: 0.72855 (Simulation time: 0 hr 2 min 51 sec) 
Heartbeat CPU  2 instructions:   27000004 cycles:   25913136 heartbeat IPC: 0.61423 cumulative IPC: 0.72808 (Simulation time: 0 hr 2 min 51 sec) 
Heartbeat CPU  0 instructions:   27000004 cycles:   25919422 heartbeat IPC: 0.61426 cumulative IPC: 0.72783 (Simulation time: 0 hr 2 min 51 sec) 
Heartbeat CPU  3 instructions:   27000004 cycles:   25952088 heartbeat IPC: 0.61457 cumulative IPC: 0.72689 (Simulation time: 0 hr 2 min 52 sec) 
Heartbeat CPU  1 instructions:   28000000 cycles:   27513284 heartbeat IPC: 0.61870 cumulative IPC: 0.72143 (Simulation time: 0 hr 2 min 59 sec) 
Heartbeat CPU  2 instructions:   28000000 cycles:   27526400 heartbeat IPC: 0.61986 cumulative IPC: 0.72108 (Simulation time: 0 hr 2 min 59 sec) 
Heartbeat CPU  0 instructions:   28000000 cycles:   27532369 heartbeat IPC: 0.61998 cumulative IPC: 0.72086 (Simulation time: 0 hr 2 min 59 sec) 
Heartbeat CPU  3 instructions:   28000000 cycles:   27566287 heartbeat IPC: 0.61950 cumulative IPC: 0.71996 (Simulation time: 0 hr 2 min 59 sec) 
Heartbeat CPU  1 instructions:   29000003 cycles:   29118702 heartbeat IPC: 0.62289 cumulative IPC: 0.71547 (Simulation time: 0 hr 3 min 6 sec) 
Heartbeat CPU  2 instructions:   29000003 cycles:   29131639 heartbeat IPC: 0.62296 cumulative IPC: 0.71515 (Simulation time: 0 hr 3 min 7 sec) 
Heartbeat CPU  0 instructions:   29000003 cycles:   29137637 heartbeat IPC: 0.62295 cumulative IPC: 0.71494 (Simulation time: 0 hr 3 min 7 sec) 
Heartbeat CPU  3 instructions:   29000003 cycles:   29171676 heartbeat IPC: 0.62290 cumulative IPC: 0.71410 (Simulation time: 0 hr 3 min 7 sec) 
Heartbeat CPU  1 instructions:   30000000 cycles:   30626726 heartbeat IPC: 0.66312 cumulative IPC: 0.71266 (Simulation time: 0 hr 3 min 14 sec) 
Heartbeat CPU  2 instructions:   30000000 cycles:   30640718 heartbeat IPC: 0.66265 cumulative IPC: 0.71233 (Simulation time: 0 hr 3 min 14 sec) 
Heartbeat CPU  0 instructions:   30000000 cycles:   30646924 heartbeat IPC: 0.66256 cumulative IPC: 0.71213 (Simulation time: 0 hr 3 min 14 sec) 
Heartbeat CPU  3 instructions:   30000000 cycles:   30675703 heartbeat IPC: 0.66488 cumulative IPC: 0.71147 (Simulation time: 0 hr 3 min 14 sec) 
Heartbeat CPU  1 instructions:   31000000 cycles:   32223981 heartbeat IPC: 0.62607 cumulative IPC: 0.70799 (Simulation time: 0 hr 3 min 21 sec) 
Heartbeat CPU  2 instructions:   31000000 cycles:   32238003 heartbeat IPC: 0.62606 cumulative IPC: 0.70769 (Simulation time: 0 hr 3 min 21 sec) 
Heartbeat CPU  0 instructions:   31000000 cycles:   32244301 heartbeat IPC: 0.62603 cumulative IPC: 0.70750 (Simulation time: 0 hr 3 min 22 sec) 
Heartbeat CPU  3 instructions:   31000000 cycles:   32272956 heartbeat IPC: 0.62607 cumulative IPC: 0.70688 (Simulation time: 0 hr 3 min 22 sec) 
Heartbeat CPU  1 instructions:   32000000 cycles:   33790540 heartbeat IPC: 0.63834 cumulative IPC: 0.70450 (Simulation time: 0 hr 3 min 29 sec) 
Heartbeat CPU  2 instructions:   32000000 cycles:   33803493 heartbeat IPC: 0.63878 cumulative IPC: 0.70423 (Simulation time: 0 hr 3 min 29 sec) 
Heartbeat CPU  0 instructions:   32000000 cycles:   33809793 heartbeat IPC: 0.63878 cumulative IPC: 0.70405 (Simulation time: 0 hr 3 min 29 sec) 
Heartbeat CPU  3 instructions:   32000000 cycles:   33839766 heartbeat IPC: 0.63824 cumulative IPC: 0.70344 (Simulation time: 0 hr 3 min 29 sec) 
Heartbeat CPU  1 instructions:   33000002 cycles:   35316926 heartbeat IPC: 0.65514 cumulative IPC: 0.70220 (Simulation time: 0 hr 3 min 36 sec) 
Heartbeat CPU  2 instructions:   33000002 cycles:   35328962 heartbeat IPC: 0.65554 cumulative IPC: 0.70197 (Simulation time: 0 hr 3 min 37 sec) 
Heartbeat CPU  0 instructions:   33000002 cycles:   35335803 heartbeat IPC: 0.65531 cumulative IPC: 0.70178 (Simulation time: 0 hr 3 min 37 sec) 
Heartbeat CPU  3 instructions:   33000002 cycles:   35368577 heartbeat IPC: 0.65410 cumulative IPC: 0.70114 (Simulation time: 0 hr 3 min 37 sec) 
Heartbeat CPU  1 instructions:   34000004 cycles:   36841996 heartbeat IPC: 0.65571 cumulative IPC: 0.70013 (Simulation time: 0 hr 3 min 44 sec) 
Heartbeat CPU  2 instructions:   34000004 cycles:   36853763 heartbeat IPC: 0.65582 cumulative IPC: 0.69992 (Simulation time: 0 hr 3 min 44 sec) 
Heartbeat CPU  0 instructions:   34000004 cycles:   36860754 heartbeat IPC: 0.65576 cumulative IPC: 0.69974 (Simulation time: 0 hr 3 min 44 sec) 
Heartbeat CPU  3 instructions:   34000004 cycles:   36893499 heartbeat IPC: 0.65577 cumulative IPC: 0.69912 (Simulation time: 0 hr 3 min 44 sec) 
Heartbeat CPU  1 instructions:   35000000 cycles:   38482209 heartbeat IPC: 0.60967 cumulative IPC: 0.69600 (Simulation time: 0 hr 3 min 52 sec) 
Heartbeat CPU  2 instructions:   35000000 cycles:   38494829 heartbeat IPC: 0.60936 cumulative IPC: 0.69578 (Simulation time: 0 hr 3 min 52 sec) 
Heartbeat CPU  0 instructions:   35000000 cycles:   38502437 heartbeat IPC: 0.60913 cumulative IPC: 0.69560 (Simulation time: 0 hr 3 min 52 sec) 
Heartbeat CPU  3 instructions:   35000000 cycles:   38531874 heartbeat IPC: 0.61036 cumulative IPC: 0.69508 (Simulation time: 0 hr 3 min 52 sec) 
Heartbeat CPU  1 instructions:   36000000 cycles:   40045100 heartbeat IPC: 0.63984 cumulative IPC: 0.69366 (Simulation time: 0 hr 3 min 59 sec) 
Heartbeat CPU  2 instructions:   36000000 cycles:   40057301 heartbeat IPC: 0.64001 cumulative IPC: 0.69346 (Simulation time: 0 hr 3 min 59 sec) 
Heartbeat CPU  0 instructions:   36000000 cycles:   40065669 heartbeat IPC: 0.63970 cumulative IPC: 0.69327 (Simulation time: 0 hr 3 min 59 sec) 
Heartbeat CPU  3 instructions:   36000000 cycles:   40095045 heartbeat IPC: 0.63973 cumulative IPC: 0.69277 (Simulation time: 0 hr 4 min 0 sec) 
Heartbeat CPU  1 instructions:   37000007 cycles:   41613192 heartbeat IPC: 0.63772 cumulative IPC: 0.69141 (Simulation time: 0 hr 4 min 7 sec) 
Heartbeat CPU  2 instructions:   37000007 cycles:   41625306 heartbeat IPC: 0.63776 cumulative IPC: 0.69122 (Simulation time: 0 hr 4 min 7 sec) 
Heartbeat CPU  0 instructions:   37000007 cycles:   41633793 heartbeat IPC: 0.63771 cumulative IPC: 0.69104 (Simulation time: 0 hr 4 min 7 sec) 
Heartbeat CPU  3 instructions:   37000007 cycles:   41663048 heartbeat IPC: 0.63776 cumulative IPC: 0.69057 (Simulation time: 0 hr 4 min 7 sec) 
Heartbeat CPU  1 instructions:   38000003 cycles:   43197065 heartbeat IPC: 0.63136 cumulative IPC: 0.68907 (Simulation time: 0 hr 4 min 15 sec) 
Heartbeat CPU  2 instructions:   38000003 cycles:   43209867 heartbeat IPC: 0.63109 cumulative IPC: 0.68888 (Simulation time: 0 hr 4 min 15 sec) 
Heartbeat CPU  0 instructions:   38000003 cycles:   43218414 heartbeat IPC: 0.63106 cumulative IPC: 0.68870 (Simulation time: 0 hr 4 min 15 sec) 
Heartbeat CPU  3 instructions:   38000003 cycles:   43248189 heartbeat IPC: 0.63086 cumulative IPC: 0.68824 (Simulation time: 0 hr 4 min 15 sec) 
Heartbeat CPU  1 instructions:   39000000 cycles:   44722686 heartbeat IPC: 0.65547 cumulative IPC: 0.68786 (Simulation time: 0 hr 4 min 22 sec) 
Heartbeat CPU  2 instructions:   39000000 cycles:   44736007 heartbeat IPC: 0.65525 cumulative IPC: 0.68766 (Simulation time: 0 hr 4 min 22 sec) 
Heartbeat CPU  0 instructions:   39000000 cycles:   44745231 heartbeat IPC: 0.65496 cumulative IPC: 0.68748 (Simulation time: 0 hr 4 min 22 sec) 
Heartbeat CPU  3 instructions:   39000000 cycles:   44775866 heartbeat IPC: 0.65459 cumulative IPC: 0.68702 (Simulation time: 0 hr 4 min 22 sec) 
Heartbeat CPU  1 instructions:   40000000 cycles:   46262531 heartbeat IPC: 0.64942 cumulative IPC: 0.68650 (Simulation time: 0 hr 4 min 29 sec) 
Heartbeat CPU  2 instructions:   40000000 cycles:   46275793 heartbeat IPC: 0.64944 cumulative IPC: 0.68631 (Simulation time: 0 hr 4 min 30 sec) 
Heartbeat CPU  0 instructions:   40000000 cycles:   46285197 heartbeat IPC: 0.64937 cumulative IPC: 0.68614 (Simulation time: 0 hr 4 min 30 sec) 
Heartbeat CPU  3 instructions:   40000000 cycles:   46315623 heartbeat IPC: 0.64945 cumulative IPC: 0.68570 (Simulation time: 0 hr 4 min 30 sec) 
Heartbeat CPU  1 instructions:   41000018 cycles:   47579310 heartbeat IPC: 0.75944 cumulative IPC: 0.68864 (Simulation time: 0 hr 4 min 37 sec) 
Heartbeat CPU  2 instructions:   41000018 cycles:   47591857 heartbeat IPC: 0.75986 cumulative IPC: 0.68846 (Simulation time: 0 hr 4 min 37 sec) 
Heartbeat CPU  0 instructions:   41000018 cycles:   47599914 heartbeat IPC: 0.76063 cumulative IPC: 0.68831 (Simulation time: 0 hr 4 min 37 sec) 
Heartbeat CPU  3 instructions:   41000018 cycles:   47630158 heartbeat IPC: 0.76074 cumulative IPC: 0.68789 (Simulation time: 0 hr 4 min 37 sec) 
Heartbeat CPU  1 instructions:   42000000 cycles:   48978648 heartbeat IPC: 0.71461 cumulative IPC: 0.68942 (Simulation time: 0 hr 4 min 44 sec) 
Heartbeat CPU  2 instructions:   42000000 cycles:   48990291 heartbeat IPC: 0.71507 cumulative IPC: 0.68926 (Simulation time: 0 hr 4 min 44 sec) 
Heartbeat CPU  0 instructions:   42000000 cycles:   48998060 heartbeat IPC: 0.71522 cumulative IPC: 0.68912 (Simulation time: 0 hr 4 min 45 sec) 
Heartbeat CPU  3 instructions:   42000000 cycles:   49029425 heartbeat IPC: 0.71465 cumulative IPC: 0.68870 (Simulation time: 0 hr 4 min 45 sec) 
Heartbeat CPU  1 instructions:   43000000 cycles:   50419511 heartbeat IPC: 0.69403 cumulative IPC: 0.68956 (Simulation time: 0 hr 4 min 52 sec) 
Heartbeat CPU  2 instructions:   43000000 cycles:   50431126 heartbeat IPC: 0.69404 cumulative IPC: 0.68941 (Simulation time: 0 hr 4 min 52 sec) 
Heartbeat CPU  0 instructions:   43000000 cycles:   50438956 heartbeat IPC: 0.69401 cumulative IPC: 0.68927 (Simulation time: 0 hr 4 min 52 sec) 
Heartbeat CPU  3 instructions:   43000000 cycles:   50470262 heartbeat IPC: 0.69404 cumulative IPC: 0.68886 (Simulation time: 0 hr 4 min 52 sec) 
Heartbeat CPU  1 instructions:   44000000 cycles:   51894017 heartbeat IPC: 0.67819 cumulative IPC: 0.68922 (Simulation time: 0 hr 4 min 59 sec) 
Heartbeat CPU  2 instructions:   44000000 cycles:   51903706 heartbeat IPC: 0.67908 cumulative IPC: 0.68910 (Simulation time: 0 hr 4 min 59 sec) 
Heartbeat CPU  0 instructions:   44000000 cycles:   51911600 heartbeat IPC: 0.67905 cumulative IPC: 0.68896 (Simulation time: 0 hr 4 min 59 sec) 
Heartbeat CPU  3 instructions:   44000000 cycles:   51943606 heartbeat IPC: 0.67873 cumulative IPC: 0.68855 (Simulation time: 0 hr 5 min 0 sec) 
Heartbeat CPU  1 instructions:   45000006 cycles:   53436208 heartbeat IPC: 0.64843 cumulative IPC: 0.68798 (Simulation time: 0 hr 5 min 7 sec) 
Heartbeat CPU  2 instructions:   45000006 cycles:   53445842 heartbeat IPC: 0.64846 cumulative IPC: 0.68787 (Simulation time: 0 hr 5 min 7 sec) 
Heartbeat CPU  0 instructions:   45000006 cycles:   53453733 heartbeat IPC: 0.64846 cumulative IPC: 0.68774 (Simulation time: 0 hr 5 min 7 sec) 
Heartbeat CPU  3 instructions:   45000006 cycles:   53485796 heartbeat IPC: 0.64843 cumulative IPC: 0.68734 (Simulation time: 0 hr 5 min 7 sec) 
Heartbeat CPU  1 instructions:   46000000 cycles:   54896258 heartbeat IPC: 0.68490 cumulative IPC: 0.68790 (Simulation time: 0 hr 5 min 14 sec) 
Heartbeat CPU  2 instructions:   46000000 cycles:   54907048 heartbeat IPC: 0.68436 cumulative IPC: 0.68777 (Simulation time: 0 hr 5 min 14 sec) 
Heartbeat CPU  0 instructions:   46000000 cycles:   54913687 heartbeat IPC: 0.68495 cumulative IPC: 0.68766 (Simulation time: 0 hr 5 min 14 sec) 
Heartbeat CPU  3 instructions:   46000000 cycles:   54947747 heartbeat IPC: 0.68401 cumulative IPC: 0.68725 (Simulation time: 0 hr 5 min 15 sec) 
Heartbeat CPU  1 instructions:   47000005 cycles:   56369412 heartbeat IPC: 0.67882 cumulative IPC: 0.68765 (Simulation time: 0 hr 5 min 22 sec) 
Heartbeat CPU  2 instructions:   47000005 cycles:   56379876 heartbeat IPC: 0.67897 cumulative IPC: 0.68753 (Simulation time: 0 hr 5 min 22 sec) 
Heartbeat CPU  0 instructions:   47000005 cycles:   56386743 heartbeat IPC: 0.67886 cumulative IPC: 0.68742 (Simulation time: 0 hr 5 min 22 sec) 
Heartbeat CPU  3 instructions:   47000005 cycles:   56414426 heartbeat IPC: 0.68182 cumulative IPC: 0.68710 (Simulation time: 0 hr 5 min 22 sec) 
Heartbeat CPU  1 instructions:   48000000 cycles:   57745820 heartbeat IPC: 0.72653 cumulative IPC: 0.68862 (Simulation time: 0 hr 5 min 29 sec) 
Heartbeat CPU  2 instructions:   48000000 cycles:   57756285 heartbeat IPC: 0.72652 cumulative IPC: 0.68850 (Simulation time: 0 hr 5 min 29 sec) 
Heartbeat CPU  0 instructions:   48000000 cycles:   57763183 heartbeat IPC: 0.72651 cumulative IPC: 0.68839 (Simulation time: 0 hr 5 min 29 sec) 
Heartbeat CPU  3 instructions:   48000000 cycles:   57790833 heartbeat IPC: 0.72653 cumulative IPC: 0.68808 (Simulation time: 0 hr 5 min 30 sec) 
Heartbeat CPU  1 instructions:   49000000 cycles:   59223147 heartbeat IPC: 0.67690 cumulative IPC: 0.68831 (Simulation time: 0 hr 5 min 37 sec) 
Heartbeat CPU  2 instructions:   49000000 cycles:   59232934 heartbeat IPC: 0.67721 cumulative IPC: 0.68821 (Simulation time: 0 hr 5 min 37 sec) 
Heartbeat CPU  0 instructions:   49000000 cycles:   59240110 heartbeat IPC: 0.67708 cumulative IPC: 0.68810 (Simulation time: 0 hr 5 min 37 sec) 
Heartbeat CPU  3 instructions:   49000000 cycles:   59265840 heartbeat IPC: 0.67796 cumulative IPC: 0.68782 (Simulation time: 0 hr 5 min 37 sec) 
Heartbeat CPU  1 instructions:   50000000 cycles:   60686505 heartbeat IPC: 0.68336 cumulative IPC: 0.68819 (Simulation time: 0 hr 5 min 44 sec) 
Heartbeat CPU  2 instructions:   50000000 cycles:   60696810 heartbeat IPC: 0.68312 cumulative IPC: 0.68808 (Simulation time: 0 hr 5 min 44 sec) 
Heartbeat CPU  0 instructions:   50000000 cycles:   60703499 heartbeat IPC: 0.68335 cumulative IPC: 0.68798 (Simulation time: 0 hr 5 min 44 sec) 
Heartbeat CPU  3 instructions:   50000000 cycles:   60726524 heartbeat IPC: 0.68461 cumulative IPC: 0.68774 (Simulation time: 0 hr 5 min 44 sec) 
Heartbeat CPU  1 instructions:   51000001 cycles:   62200457 heartbeat IPC: 0.66052 cumulative IPC: 0.68748 (Simulation time: 0 hr 5 min 52 sec) 
Heartbeat CPU  2 instructions:   51000001 cycles:   62210396 heartbeat IPC: 0.66068 cumulative IPC: 0.68738 (Simulation time: 0 hr 5 min 52 sec) 
Heartbeat CPU  0 instructions:   51000001 cycles:   62217524 heartbeat IPC: 0.66049 cumulative IPC: 0.68728 (Simulation time: 0 hr 5 min 52 sec) 
Heartbeat CPU  3 instructions:   51000001 cycles:   62238837 heartbeat IPC: 0.66124 cumulative IPC: 0.68707 (Simulation time: 0 hr 5 min 52 sec) 
Heartbeat CPU  1 instructions:   52000000 cycles:   63766334 heartbeat IPC: 0.63862 cumulative IPC: 0.68623 (Simulation time: 0 hr 5 min 59 sec) 
Heartbeat CPU  2 instructions:   52000000 cycles:   63775954 heartbeat IPC: 0.63875 cumulative IPC: 0.68614 (Simulation time: 0 hr 5 min 59 sec) 
Heartbeat CPU  0 instructions:   52000000 cycles:   63783403 heartbeat IPC: 0.63862 cumulative IPC: 0.68603 (Simulation time: 0 hr 5 min 59 sec) 
Heartbeat CPU  3 instructions:   52000000 cycles:   63804761 heartbeat IPC: 0.63860 cumulative IPC: 0.68583 (Simulation time: 0 hr 5 min 59 sec) 
Heartbeat CPU  1 instructions:   53000000 cycles:   65365002 heartbeat IPC: 0.62552 cumulative IPC: 0.68469 (Simulation time: 0 hr 6 min 7 sec) 
Heartbeat CPU  2 instructions:   53000000 cycles:   65374365 heartbeat IPC: 0.62562 cumulative IPC: 0.68460 (Simulation time: 0 hr 6 min 7 sec) 
Heartbeat CPU  0 instructions:   53000000 cycles:   65382146 heartbeat IPC: 0.62549 cumulative IPC: 0.68449 (Simulation time: 0 hr 6 min 7 sec) 
Heartbeat CPU  3 instructions:   53000000 cycles:   65402270 heartbeat IPC: 0.62597 cumulative IPC: 0.68430 (Simulation time: 0 hr 6 min 7 sec) 
Heartbeat CPU  1 instructions:   54000006 cycles:   66979361 heartbeat IPC: 0.61944 cumulative IPC: 0.68305 (Simulation time: 0 hr 6 min 14 sec) 
Heartbeat CPU  2 instructions:   54000006 cycles:   66988606 heartbeat IPC: 0.61949 cumulative IPC: 0.68297 (Simulation time: 0 hr 6 min 14 sec) 
Heartbeat CPU  0 instructions:   54000006 cycles:   66996628 heartbeat IPC: 0.61940 cumulative IPC: 0.68286 (Simulation time: 0 hr 6 min 14 sec) 
Heartbeat CPU  3 instructions:   54000006 cycles:   67016631 heartbeat IPC: 0.61944 cumulative IPC: 0.68268 (Simulation time: 0 hr 6 min 14 sec) 
Heartbeat CPU  1 instructions:   55000001 cycles:   68563765 heartbeat IPC: 0.63115 cumulative IPC: 0.68181 (Simulation time: 0 hr 6 min 22 sec) 
Heartbeat CPU  2 instructions:   55000001 cycles:   68572380 heartbeat IPC: 0.63140 cumulative IPC: 0.68173 (Simulation time: 0 hr 6 min 22 sec) 
Heartbeat CPU  0 instructions:   55000001 cycles:   68580722 heartbeat IPC: 0.63127 cumulative IPC: 0.68163 (Simulation time: 0 hr 6 min 22 sec) 
Heartbeat CPU  3 instructions:   55000001 cycles:   68600272 heartbeat IPC: 0.63145 cumulative IPC: 0.68145 (Simulation time: 0 hr 6 min 22 sec) 
Heartbeat CPU  1 instructions:   56000000 cycles:   70144029 heartbeat IPC: 0.63281 cumulative IPC: 0.68066 (Simulation time: 0 hr 6 min 29 sec) 
Heartbeat CPU  2 instructions:   56000000 cycles:   70152396 heartbeat IPC: 0.63290 cumulative IPC: 0.68059 (Simulation time: 0 hr 6 min 29 sec) 
Heartbeat CPU  0 instructions:   56000000 cycles:   70161031 heartbeat IPC: 0.63279 cumulative IPC: 0.68048 (Simulation time: 0 hr 6 min 29 sec) 
Heartbeat CPU  3 instructions:   56000000 cycles:   70179873 heartbeat IPC: 0.63307 cumulative IPC: 0.68032 (Simulation time: 0 hr 6 min 30 sec) 
Heartbeat CPU  1 instructions:   57000004 cycles:   71731382 heartbeat IPC: 0.62998 cumulative IPC: 0.67950 (Simulation time: 0 hr 6 min 37 sec) 
Heartbeat CPU  2 instructions:   57000004 cycles:   71739717 heartbeat IPC: 0.62999 cumulative IPC: 0.67943 (Simulation time: 0 hr 6 min 37 sec) 
Heartbeat CPU  0 instructions:   57000004 cycles:   71748414 heartbeat IPC: 0.62997 cumulative IPC: 0.67932 (Simulation time: 0 hr 6 min 37 sec) 
Heartbeat CPU  3 instructions:   57000004 cycles:   71767308 heartbeat IPC: 0.62995 cumulative IPC: 0.67917 (Simulation time: 0 hr 6 min 37 sec) 
Heartbeat CPU  1 instructions:   58000005 cycles:   73256470 heartbeat IPC: 0.65570 cumulative IPC: 0.67898 (Simulation time: 0 hr 6 min 44 sec) 
Heartbeat CPU  2 instructions:   58000005 cycles:   73265197 heartbeat IPC: 0.65553 cumulative IPC: 0.67891 (Simulation time: 0 hr 6 min 44 sec) 
Heartbeat CPU  0 instructions:   58000005 cycles:   73273623 heartbeat IPC: 0.65565 cumulative IPC: 0.67881 (Simulation time: 0 hr 6 min 44 sec) 
Heartbeat CPU  3 instructions:   58000005 cycles:   73292744 heartbeat IPC: 0.65555 cumulative IPC: 0.67866 (Simulation time: 0 hr 6 min 45 sec) 
Heartbeat CPU  1 instructions:   59000002 cycles:   74861176 heartbeat IPC: 0.62317 cumulative IPC: 0.67775 (Simulation time: 0 hr 6 min 52 sec) 
Heartbeat CPU  2 instructions:   59000002 cycles:   74870085 heartbeat IPC: 0.62309 cumulative IPC: 0.67767 (Simulation time: 0 hr 6 min 52 sec) 
Heartbeat CPU  0 instructions:   59000002 cycles:   74878510 heartbeat IPC: 0.62309 cumulative IPC: 0.67758 (Simulation time: 0 hr 6 min 52 sec) 
Heartbeat CPU  3 instructions:   59000002 cycles:   74897731 heartbeat IPC: 0.62306 cumulative IPC: 0.67742 (Simulation time: 0 hr 6 min 52 sec) 
Heartbeat CPU  1 instructions:   60000000 cycles:   76494653 heartbeat IPC: 0.61219 cumulative IPC: 0.67630 (Simulation time: 0 hr 7 min 0 sec) 
Finished CPU 1 instructions: 50000014 cycles: 73932141 cumulative IPC: 0.67630 (Simulation time: 0 hr 7 min 0 sec) 
Heartbeat CPU  2 instructions:   60000000 cycles:   76503005 heartbeat IPC: 0.61240 cumulative IPC: 0.67623 (Simulation time: 0 hr 7 min 0 sec) 
Finished CPU 2 instructions: 50000002 cycles: 73939224 cumulative IPC: 0.67623 (Simulation time: 0 hr 7 min 0 sec) 
Heartbeat CPU  0 instructions:   60000000 cycles:   76511624 heartbeat IPC: 0.61233 cumulative IPC: 0.67614 (Simulation time: 0 hr 7 min 0 sec) 
Finished CPU 0 instructions: 50000002 cycles: 73949826 cumulative IPC: 0.67613 (Simulation time: 0 hr 7 min 0 sec) 
Heartbeat CPU  3 instructions:   60000000 cycles:   76530428 heartbeat IPC: 0.61248 cumulative IPC: 0.67599 (Simulation time: 0 hr 7 min 0 sec) 
Finished CPU 3 instructions: 50000002 cycles: 73965701 cumulative IPC: 0.67599 (Simulation time: 0 hr 7 min 0 sec) 

ChampSim completed all CPUs

Total Simulation Statistics (not including warmup)

CPU 0 cumulative IPC: 0.67612 instructions: 50009755 cycles: 73965701
Core_0_L1D_total_access 11717179
Core_0_L1D_total_hit 11424196
Core_0_L1D_total_miss 292983
Core_0_L1D_loads 6589060
Core_0_L1D_load_hit 6350672
Core_0_L1D_load_miss 238388
Core_0_L1D_RFOs 5128119
Core_0_L1D_RFO_hit 5073524
Core_0_L1D_RFO_miss 54595
Core_0_L1D_prefetches 0
Core_0_L1D_prefetch_hit 0
Core_0_L1D_prefetch_miss 0
Core_0_L1D_writebacks 0
Core_0_L1D_writeback_hit 0
Core_0_L1D_writeback_miss 0

Core_0_L1I_total_access 6720822
Core_0_L1I_total_hit 6720696
Core_0_L1I_total_miss 126
Core_0_L1I_loads 6720822
Core_0_L1I_load_hit 6720696
Core_0_L1I_load_miss 126
Core_0_L1I_RFOs 0
Core_0_L1I_RFO_hit 0
Core_0_L1I_RFO_miss 0
Core_0_L1I_prefetches 0
Core_0_L1I_prefetch_hit 0
Core_0_L1I_prefetch_miss 0
Core_0_L1I_writebacks 0
Core_0_L1I_writeback_hit 0
Core_0_L1I_writeback_miss 0

Core_0_L2C_total_access 349165
Core_0_L2C_total_hit 146959
Core_0_L2C_total_miss 202206
Core_0_L2C_loads 238514
Core_0_L2C_load_hit 84504
Core_0_L2C_load_miss 154010
Core_0_L2C_RFOs 54595
Core_0_L2C_RFO_hit 6424
Core_0_L2C_RFO_miss 48171
Core_0_L2C_prefetches 0
Core_0_L2C_prefetch_hit 0
Core_0_L2C_prefetch_miss 0
Core_0_L2C_writebacks 56056
Core_0_L2C_writeback_hit 56031
Core_0_L2C_writeback_miss 25


Core_0_LLC_total_access 247270
Core_0_LLC_total_hit 180739
Core_0_LLC_total_miss 66531
Core_0_LLC_loads 154010
Core_0_LLC_load_hit 121657
Core_0_LLC_load_miss 32353
Core_0_LLC_RFOs 48171
Core_0_LLC_RFO_hit 14057
Core_0_LLC_RFO_miss 34114
Core_0_LLC_prefetches 0
Core_0_LLC_prefetch_hit 0
Core_0_LLC_prefetch_miss 0
Core_0_LLC_writebacks 45089
Core_0_LLC_writeback_hit 45025
Core_0_LLC_writeback_miss 64


CPU 1 cumulative IPC: 0.67627 instructions: 50020782 cycles: 73965701
Core_1_L1D_total_access 11720077
Core_1_L1D_total_hit 11427072
Core_1_L1D_total_miss 293005
Core_1_L1D_loads 6590616
Core_1_L1D_load_hit 6352220
Core_1_L1D_load_miss 238396
Core_1_L1D_RFOs 5129461
Core_1_L1D_RFO_hit 5074852
Core_1_L1D_RFO_miss 54609
Core_1_L1D_prefetches 0
Core_1_L1D_prefetch_hit 0
Core_1_L1D_prefetch_miss 0
Core_1_L1D_writebacks 0
Core_1_L1D_writeback_hit 0
Core_1_L1D_writeback_miss 0

Core_1_L1I_total_access 6722335
Core_1_L1I_total_hit 6722209
Core_1_L1I_total_miss 126
Core_1_L1I_loads 6722335
Core_1_L1I_load_hit 6722209
Core_1_L1I_load_miss 126
Core_1_L1I_RFOs 0
Core_1_L1I_RFO_hit 0
Core_1_L1I_RFO_miss 0
Core_1_L1I_prefetches 0
Core_1_L1I_prefetch_hit 0
Core_1_L1I_prefetch_miss 0
Core_1_L1I_writebacks 0
Core_1_L1I_writeback_hit 0
Core_1_L1I_writeback_miss 0

Core_1_L2C_total_access 349200
Core_1_L2C_total_hit 147286
Core_1_L2C_total_miss 201914
Core_1_L2C_loads 238522
Core_1_L2C_load_hit 84757
Core_1_L2C_load_miss 153765
Core_1_L2C_RFOs 54609
Core_1_L2C_RFO_hit 6497
Core_1_L2C_RFO_miss 48112
Core_1_L2C_prefetches 0
Core_1_L2C_prefetch_hit 0
Core_1_L2C_prefetch_miss 0
Core_1_L2C_writebacks 56069
Core_1_L2C_writeback_hit 56032
Core_1_L2C_writeback_miss 37


Core_1_LLC_total_access 246862
Core_1_LLC_total_hit 180423
Core_1_LLC_total_miss 66439
Core_1_LLC_loads 153765
Core_1_LLC_load_hit 121633
Core_1_LLC_load_miss 32132
Core_1_LLC_RFOs 48112
Core_1_LLC_RFO_hit 13898
Core_1_LLC_RFO_miss 34214
Core_1_LLC_prefetches 0
Core_1_LLC_prefetch_hit 0
Core_1_LLC_prefetch_miss 0
Core_1_LLC_writebacks 44985
Core_1_LLC_writeback_hit 44892
Core_1_LLC_writeback_miss 93


CPU 2 cumulative IPC: 0.67621 instructions: 50016359 cycles: 73965701
Core_2_L1D_total_access 11720076
Core_2_L1D_total_hit 11427079
Core_2_L1D_total_miss 292997
Core_2_L1D_loads 6589902
Core_2_L1D_load_hit 6351506
Core_2_L1D_load_miss 238396
Core_2_L1D_RFOs 5130174
Core_2_L1D_RFO_hit 5075573
Core_2_L1D_RFO_miss 54601
Core_2_L1D_prefetches 0
Core_2_L1D_prefetch_hit 0
Core_2_L1D_prefetch_miss 0
Core_2_L1D_writebacks 0
Core_2_L1D_writeback_hit 0
Core_2_L1D_writeback_miss 0

Core_2_L1I_total_access 6721246
Core_2_L1I_total_hit 6721120
Core_2_L1I_total_miss 126
Core_2_L1I_loads 6721246
Core_2_L1I_load_hit 6721120
Core_2_L1I_load_miss 126
Core_2_L1I_RFOs 0
Core_2_L1I_RFO_hit 0
Core_2_L1I_RFO_miss 0
Core_2_L1I_prefetches 0
Core_2_L1I_prefetch_hit 0
Core_2_L1I_prefetch_miss 0
Core_2_L1I_writebacks 0
Core_2_L1I_writeback_hit 0
Core_2_L1I_writeback_miss 0

Core_2_L2C_total_access 349185
Core_2_L2C_total_hit 146302
Core_2_L2C_total_miss 202883
Core_2_L2C_loads 238522
Core_2_L2C_load_hit 83949
Core_2_L2C_load_miss 154573
Core_2_L2C_RFOs 54601
Core_2_L2C_RFO_hit 6327
Core_2_L2C_RFO_miss 48274
Core_2_L2C_prefetches 0
Core_2_L2C_prefetch_hit 0
Core_2_L2C_prefetch_miss 0
Core_2_L2C_writebacks 56062
Core_2_L2C_writeback_hit 56026
Core_2_L2C_writeback_miss 36


Core_2_LLC_total_access 248150
Core_2_LLC_total_hit 181990
Core_2_LLC_total_miss 66160
Core_2_LLC_loads 154573
Core_2_LLC_load_hit 122391
Core_2_LLC_load_miss 32182
Core_2_LLC_RFOs 48274
Core_2_LLC_RFO_hit 14326
Core_2_LLC_RFO_miss 33948
Core_2_LLC_prefetches 0
Core_2_LLC_prefetch_hit 0
Core_2_LLC_prefetch_miss 0
Core_2_LLC_writebacks 45303
Core_2_LLC_writeback_hit 45273
Core_2_LLC_writeback_miss 30


CPU 3 cumulative IPC: 0.67599 instructions: 50000002 cycles: 73965701
Core_3_L1D_total_access 11715215
Core_3_L1D_total_hit 11422227
Core_3_L1D_total_miss 292988
Core_3_L1D_loads 6587585
Core_3_L1D_load_hit 6349183
Core_3_L1D_load_miss 238402
Core_3_L1D_RFOs 5127630
Core_3_L1D_RFO_hit 5073044
Core_3_L1D_RFO_miss 54586
Core_3_L1D_prefetches 0
Core_3_L1D_prefetch_hit 0
Core_3_L1D_prefetch_miss 0
Core_3_L1D_writebacks 0
Core_3_L1D_writeback_hit 0
Core_3_L1D_writeback_miss 0

Core_3_L1I_total_access 6719546
Core_3_L1I_total_hit 6719420
Core_3_L1I_total_miss 126
Core_3_L1I_loads 6719546
Core_3_L1I_load_hit 6719420
Core_3_L1I_load_miss 126
Core_3_L1I_RFOs 0
Core_3_L1I_RFO_hit 0
Core_3_L1I_RFO_miss 0
Core_3_L1I_prefetches 0
Core_3_L1I_prefetch_hit 0
Core_3_L1I_prefetch_miss 0
Core_3_L1I_writebacks 0
Core_3_L1I_writeback_hit 0
Core_3_L1I_writeback_miss 0

Core_3_L2C_total_access 349169
Core_3_L2C_total_hit 146931
Core_3_L2C_total_miss 202238
Core_3_L2C_loads 238528
Core_3_L2C_load_hit 84260
Core_3_L2C_load_miss 154268
Core_3_L2C_RFOs 54586
Core_3_L2C_RFO_hit 6641
Core_3_L2C_RFO_miss 47945
Core_3_L2C_prefetches 0
Core_3_L2C_prefetch_hit 0
Core_3_L2C_prefetch_miss 0
Core_3_L2C_writebacks 56055
Core_3_L2C_writeback_hit 56030
Core_3_L2C_writeback_miss 25


Core_3_LLC_total_access 247129
Core_3_LLC_total_hit 180383
Core_3_LLC_total_miss 66746
Core_3_LLC_loads 154268
Core_3_LLC_load_hit 121750
Core_3_LLC_load_miss 32518
Core_3_LLC_RFOs 47945
Core_3_LLC_RFO_hit 13818
Core_3_LLC_RFO_miss 34127
Core_3_LLC_prefetches 0
Core_3_LLC_prefetch_hit 0
Core_3_LLC_prefetch_miss 0
Core_3_LLC_writebacks 44916
Core_3_LLC_writeback_hit 44815
Core_3_LLC_writeback_miss 101


[ROI Statistics]
Core_0_instructions 50000002
Core_0_cycles 73949826
Core_0_IPC 0.67613

Core_0_branch_prediction_accuracy 91.14732
Core_0_branch_MPKI 15.09557
Core_0_average_ROB_occupancy_at_mispredict 55.54601

Core_0_L1D_total_access 11714663
Core_0_L1D_total_hit 11421691
Core_0_L1D_total_miss_isca 292972
Core_0_L1D_total_overlap_miss 0
Core_0_L1D_loads 6587649
Core_0_L1D_load_hit 6349261
Core_0_L1D_load_miss 238388
Core_0_L1D_RFOs 5127014
Core_0_L1D_RFO_hit 5072430
Core_0_L1D_RFO_miss 54584
Core_0_L1D_prefetches 0
Core_0_L1D_prefetch_hit 0
Core_0_L1D_prefetch_miss 0
Core_0_L1D_writebacks 0
Core_0_L1D_writeback_hit 0
Core_0_L1D_writeback_miss 0
Core_0_L1D_miss_rate 0.02501
Core_0_L1D_MPKI 5.85944
Core_0_L1D_demand_miss 292972
Core_0_L1D_prefetch_requested 0
Core_0_L1D_prefetch_issued 0
Core_0_L1D_prefetch_useful 0
Core_0_L1D_prefetch_useless 0
Core_0_L1D_prefetch_late 0
Core_0_L1D_average_miss_latency 165.83191

Replacement_count: 0
Bypassing_count: 0
Core_0_L1I_total_access 6719590
Core_0_L1I_total_hit 6719464
Core_0_L1I_total_miss_isca 126
Core_0_L1I_total_overlap_miss 0
Core_0_L1I_loads 6719590
Core_0_L1I_load_hit 6719464
Core_0_L1I_load_miss 126
Core_0_L1I_RFOs 0
Core_0_L1I_RFO_hit 0
Core_0_L1I_RFO_miss 0
Core_0_L1I_prefetches 0
Core_0_L1I_prefetch_hit 0
Core_0_L1I_prefetch_miss 0
Core_0_L1I_writebacks 0
Core_0_L1I_writeback_hit 0
Core_0_L1I_writeback_miss 0
Core_0_L1I_miss_rate 0.00002
Core_0_L1I_MPKI 0.00252
Core_0_L1I_demand_miss 126
Core_0_L1I_prefetch_requested 0
Core_0_L1I_prefetch_issued 0
Core_0_L1I_prefetch_useful 0
Core_0_L1I_prefetch_useless 0
Core_0_L1I_prefetch_late 0
Core_0_L1I_average_miss_latency 440.71429

Replacement_count: 0
Bypassing_count: 0
Core_0_L2C_total_access 349145
Core_0_L2C_total_hit 146950
Core_0_L2C_total_miss_isca 202195
Core_0_L2C_total_overlap_miss 0
Core_0_L2C_loads 238514
Core_0_L2C_load_hit 84504
Core_0_L2C_load_miss 154010
Core_0_L2C_RFOs 54584
Core_0_L2C_RFO_hit 6424
Core_0_L2C_RFO_miss 48160
Core_0_L2C_prefetches 0
Core_0_L2C_prefetch_hit 0
Core_0_L2C_prefetch_miss 0
Core_0_L2C_writebacks 56047
Core_0_L2C_writeback_hit 56022
Core_0_L2C_writeback_miss 25
Core_0_L2C_miss_rate 0.57911
Core_0_L2C_MPKI 4.04390
Core_0_L2C_demand_miss 202195
Core_0_L2C_prefetch_requested 0
Core_0_L2C_prefetch_issued 0
Core_0_L2C_prefetch_useful 0
Core_0_L2C_prefetch_useless 0
Core_0_L2C_prefetch_late 0
Core_0_L2C_average_miss_latency 199.94557

Replacement_count: 0
Bypassing_count: 0
Core_0_LLC_total_access 247248
Core_0_LLC_total_hit 180726
Core_0_LLC_total_miss_isca 66522
Core_0_LLC_total_overlap_miss 0
Core_0_LLC_loads 154010
Core_0_LLC_load_hit 121657
Core_0_LLC_load_miss 32353
Core_0_LLC_RFOs 48160
Core_0_LLC_RFO_hit 14055
Core_0_LLC_RFO_miss 34105
Core_0_LLC_prefetches 0
Core_0_LLC_prefetch_hit 0
Core_0_LLC_prefetch_miss 0
Core_0_LLC_writebacks 45078
Core_0_LLC_writeback_hit 45014
Core_0_LLC_writeback_miss 64
Core_0_LLC_miss_rate 0.26905
Core_0_LLC_MPKI 1.33044
Core_0_LLC_demand_miss 66522
Core_0_LLC_prefetch_requested 0
Core_0_LLC_prefetch_issued 0
Core_0_LLC_prefetch_useful 0
Core_0_LLC_prefetch_useless 0
Core_0_LLC_prefetch_late 0
Core_0_LLC_average_miss_latency 1686.64824

Replacement_count: 0
Bypassing_count: 0
Core_0_major_page_fault 0
Core_0_minor_page_fault 935

Core_1_instructions 50000014
Core_1_cycles 73932141
Core_1_IPC 0.67630

Core_1_branch_prediction_accuracy 91.14703
Core_1_branch_MPKI 15.09644
Core_1_average_ROB_occupancy_at_mispredict 55.53779

Core_1_L1D_total_access 11714731
Core_1_L1D_total_hit 11421749
Core_1_L1D_total_miss_isca 292982
Core_1_L1D_total_overlap_miss 0
Core_1_L1D_loads 6587623
Core_1_L1D_load_hit 6349228
Core_1_L1D_load_miss 238395
Core_1_L1D_RFOs 5127108
Core_1_L1D_RFO_hit 5072521
Core_1_L1D_RFO_miss 54587
Core_1_L1D_prefetches 0
Core_1_L1D_prefetch_hit 0
Core_1_L1D_prefetch_miss 0
Core_1_L1D_writebacks 0
Core_1_L1D_writeback_hit 0
Core_1_L1D_writeback_miss 0
Core_1_L1D_miss_rate 0.02501
Core_1_L1D_MPKI 5.85964
Core_1_L1D_demand_miss 292982
Core_1_L1D_prefetch_requested 0
Core_1_L1D_prefetch_issued 0
Core_1_L1D_prefetch_useful 0
Core_1_L1D_prefetch_useless 0
Core_1_L1D_prefetch_late 0
Core_1_L1D_average_miss_latency 164.48615

Replacement_count: 0
Bypassing_count: 0
Core_1_L1I_total_access 6719687
Core_1_L1I_total_hit 6719561
Core_1_L1I_total_miss_isca 126
Core_1_L1I_total_overlap_miss 0
Core_1_L1I_loads 6719687
Core_1_L1I_load_hit 6719561
Core_1_L1I_load_miss 126
Core_1_L1I_RFOs 0
Core_1_L1I_RFO_hit 0
Core_1_L1I_RFO_miss 0
Core_1_L1I_prefetches 0
Core_1_L1I_prefetch_hit 0
Core_1_L1I_prefetch_miss 0
Core_1_L1I_writebacks 0
Core_1_L1I_writeback_hit 0
Core_1_L1I_writeback_miss 0
Core_1_L1I_miss_rate 0.00002
Core_1_L1I_MPKI 0.00252
Core_1_L1I_demand_miss 126
Core_1_L1I_prefetch_requested 0
Core_1_L1I_prefetch_issued 0
Core_1_L1I_prefetch_useful 0
Core_1_L1I_prefetch_useless 0
Core_1_L1I_prefetch_late 0
Core_1_L1I_average_miss_latency 422.26984

Replacement_count: 0
Bypassing_count: 0
Core_1_L2C_total_access 349158
Core_1_L2C_total_hit 147266
Core_1_L2C_total_miss_isca 201892
Core_1_L2C_total_overlap_miss 0
Core_1_L2C_loads 238521
Core_1_L2C_load_hit 84756
Core_1_L2C_load_miss 153765
Core_1_L2C_RFOs 54587
Core_1_L2C_RFO_hit 6497
Core_1_L2C_RFO_miss 48090
Core_1_L2C_prefetches 0
Core_1_L2C_prefetch_hit 0
Core_1_L2C_prefetch_miss 0
Core_1_L2C_writebacks 56050
Core_1_L2C_writeback_hit 56013
Core_1_L2C_writeback_miss 37
Core_1_L2C_miss_rate 0.57823
Core_1_L2C_MPKI 4.03784
Core_1_L2C_demand_miss 201892
Core_1_L2C_prefetch_requested 0
Core_1_L2C_prefetch_issued 0
Core_1_L2C_prefetch_useful 0
Core_1_L2C_prefetch_useless 0
Core_1_L2C_prefetch_late 0
Core_1_L2C_average_miss_latency 198.28429

Replacement_count: 0
Bypassing_count: 0
Core_1_LLC_total_access 246818
Core_1_LLC_total_hit 180399
Core_1_LLC_total_miss_isca 66419
Core_1_LLC_total_overlap_miss 0
Core_1_LLC_loads 153765
Core_1_LLC_load_hit 121633
Core_1_LLC_load_miss 32132
Core_1_LLC_RFOs 48090
Core_1_LLC_RFO_hit 13896
Core_1_LLC_RFO_miss 34194
Core_1_LLC_prefetches 0
Core_1_LLC_prefetch_hit 0
Core_1_LLC_prefetch_miss 0
Core_1_LLC_writebacks 44963
Core_1_LLC_writeback_hit 44870
Core_1_LLC_writeback_miss 93
Core_1_LLC_miss_rate 0.26910
Core_1_LLC_MPKI 1.32838
Core_1_LLC_demand_miss 66419
Core_1_LLC_prefetch_requested 0
Core_1_LLC_prefetch_issued 0
Core_1_LLC_prefetch_useful 0
Core_1_LLC_prefetch_useless 0
Core_1_LLC_prefetch_late 0
Core_1_LLC_average_miss_latency 1689.26383

Replacement_count: 0
Bypassing_count: 0
Core_1_major_page_fault 0
Core_1_minor_page_fault 935

Core_2_instructions 50000002
Core_2_cycles 73939224
Core_2_IPC 0.67623

Core_2_branch_prediction_accuracy 91.14724
Core_2_branch_MPKI 15.09612
Core_2_average_ROB_occupancy_at_mispredict 55.54203

Core_2_L1D_total_access 11715838
Core_2_L1D_total_hit 11422858
Core_2_L1D_total_miss_isca 292980
Core_2_L1D_total_overlap_miss 0
Core_2_L1D_loads 6587533
Core_2_L1D_load_hit 6349137
Core_2_L1D_load_miss 238396
Core_2_L1D_RFOs 5128305
Core_2_L1D_RFO_hit 5073721
Core_2_L1D_RFO_miss 54584
Core_2_L1D_prefetches 0
Core_2_L1D_prefetch_hit 0
Core_2_L1D_prefetch_miss 0
Core_2_L1D_writebacks 0
Core_2_L1D_writeback_hit 0
Core_2_L1D_writeback_miss 0
Core_2_L1D_miss_rate 0.02501
Core_2_L1D_MPKI 5.85960
Core_2_L1D_demand_miss 292980
Core_2_L1D_prefetch_requested 0
Core_2_L1D_prefetch_issued 0
Core_2_L1D_prefetch_useful 0
Core_2_L1D_prefetch_useless 0
Core_2_L1D_prefetch_late 0
Core_2_L1D_average_miss_latency 164.68467

Replacement_count: 0
Bypassing_count: 0
Core_2_L1I_total_access 6719197
Core_2_L1I_total_hit 6719071
Core_2_L1I_total_miss_isca 126
Core_2_L1I_total_overlap_miss 0
Core_2_L1I_loads 6719197
Core_2_L1I_load_hit 6719071
Core_2_L1I_load_miss 126
Core_2_L1I_RFOs 0
Core_2_L1I_RFO_hit 0
Core_2_L1I_RFO_miss 0
Core_2_L1I_prefetches 0
Core_2_L1I_prefetch_hit 0
Core_2_L1I_prefetch_miss 0
Core_2_L1I_writebacks 0
Core_2_L1I_writeback_hit 0
Core_2_L1I_writeback_miss 0
Core_2_L1I_miss_rate 0.00002
Core_2_L1I_MPKI 0.00252
Core_2_L1I_demand_miss 126
Core_2_L1I_prefetch_requested 0
Core_2_L1I_prefetch_issued 0
Core_2_L1I_prefetch_useful 0
Core_2_L1I_prefetch_useless 0
Core_2_L1I_prefetch_late 0
Core_2_L1I_average_miss_latency 448.92063

Replacement_count: 0
Bypassing_count: 0
Core_2_L2C_total_access 349155
Core_2_L2C_total_hit 146289
Core_2_L2C_total_miss_isca 202866
Core_2_L2C_total_overlap_miss 0
Core_2_L2C_loads 238522
Core_2_L2C_load_hit 83949
Core_2_L2C_load_miss 154573
Core_2_L2C_RFOs 54584
Core_2_L2C_RFO_hit 6327
Core_2_L2C_RFO_miss 48257
Core_2_L2C_prefetches 0
Core_2_L2C_prefetch_hit 0
Core_2_L2C_prefetch_miss 0
Core_2_L2C_writebacks 56049
Core_2_L2C_writeback_hit 56013
Core_2_L2C_writeback_miss 36
Core_2_L2C_miss_rate 0.58102
Core_2_L2C_MPKI 4.05732
Core_2_L2C_demand_miss 202866
Core_2_L2C_prefetch_requested 0
Core_2_L2C_prefetch_issued 0
Core_2_L2C_prefetch_useful 0
Core_2_L2C_prefetch_useless 0
Core_2_L2C_prefetch_late 0
Core_2_L2C_average_miss_latency 197.63614

Replacement_count: 0
Bypassing_count: 0
Core_2_LLC_total_access 248118
Core_2_LLC_total_hit 181973
Core_2_LLC_total_miss_isca 66145
Core_2_LLC_total_overlap_miss 0
Core_2_LLC_loads 154573
Core_2_LLC_load_hit 122391
Core_2_LLC_load_miss 32182
Core_2_LLC_RFOs 48257
Core_2_LLC_RFO_hit 14324
Core_2_LLC_RFO_miss 33933
Core_2_LLC_prefetches 0
Core_2_LLC_prefetch_hit 0
Core_2_LLC_prefetch_miss 0
Core_2_LLC_writebacks 45288
Core_2_LLC_writeback_hit 45258
Core_2_LLC_writeback_miss 30
Core_2_LLC_miss_rate 0.26659
Core_2_LLC_MPKI 1.32290
Core_2_LLC_demand_miss 66145
Core_2_LLC_prefetch_requested 0
Core_2_LLC_prefetch_issued 0
Core_2_LLC_prefetch_useful 0
Core_2_LLC_prefetch_useless 0
Core_2_LLC_prefetch_late 0
Core_2_LLC_average_miss_latency 1696.26146

Replacement_count: 0
Bypassing_count: 0
Core_2_major_page_fault 0
Core_2_minor_page_fault 935

Core_3_instructions 50000002
Core_3_cycles 73965701
Core_3_IPC 0.67599

Core_3_branch_prediction_accuracy 91.14802
Core_3_branch_MPKI 15.09484
Core_3_average_ROB_occupancy_at_mispredict 55.54529

Core_3_L1D_total_access 11715215
Core_3_L1D_total_hit 11422227
Core_3_L1D_total_miss_isca 292988
Core_3_L1D_total_overlap_miss 0
Core_3_L1D_loads 6587585
Core_3_L1D_load_hit 6349183
Core_3_L1D_load_miss 238402
Core_3_L1D_RFOs 5127630
Core_3_L1D_RFO_hit 5073044
Core_3_L1D_RFO_miss 54586
Core_3_L1D_prefetches 0
Core_3_L1D_prefetch_hit 0
Core_3_L1D_prefetch_miss 0
Core_3_L1D_writebacks 0
Core_3_L1D_writeback_hit 0
Core_3_L1D_writeback_miss 0
Core_3_L1D_miss_rate 0.02501
Core_3_L1D_MPKI 5.85976
Core_3_L1D_demand_miss 292988
Core_3_L1D_prefetch_requested 0
Core_3_L1D_prefetch_issued 0
Core_3_L1D_prefetch_useful 0
Core_3_L1D_prefetch_useless 0
Core_3_L1D_prefetch_late 0
Core_3_L1D_average_miss_latency 165.09941

Replacement_count: 0
Bypassing_count: 0
Core_3_L1I_total_access 6719546
Core_3_L1I_total_hit 6719420
Core_3_L1I_total_miss_isca 126
Core_3_L1I_total_overlap_miss 0
Core_3_L1I_loads 6719546
Core_3_L1I_load_hit 6719420
Core_3_L1I_load_miss 126
Core_3_L1I_RFOs 0
Core_3_L1I_RFO_hit 0
Core_3_L1I_RFO_miss 0
Core_3_L1I_prefetches 0
Core_3_L1I_prefetch_hit 0
Core_3_L1I_prefetch_miss 0
Core_3_L1I_writebacks 0
Core_3_L1I_writeback_hit 0
Core_3_L1I_writeback_miss 0
Core_3_L1I_miss_rate 0.00002
Core_3_L1I_MPKI 0.00252
Core_3_L1I_demand_miss 126
Core_3_L1I_prefetch_requested 0
Core_3_L1I_prefetch_issued 0
Core_3_L1I_prefetch_useful 0
Core_3_L1I_prefetch_useless 0
Core_3_L1I_prefetch_late 0
Core_3_L1I_average_miss_latency 398.73016

Replacement_count: 0
Bypassing_count: 0
Core_3_L2C_total_access 349169
Core_3_L2C_total_hit 146931
Core_3_L2C_total_miss_isca 202238
Core_3_L2C_total_overlap_miss 0
Core_3_L2C_loads 238528
Core_3_L2C_load_hit 84260
Core_3_L2C_load_miss 154268
Core_3_L2C_RFOs 54586
Core_3_L2C_RFO_hit 6641
Core_3_L2C_RFO_miss 47945
Core_3_L2C_prefetches 0
Core_3_L2C_prefetch_hit 0
Core_3_L2C_prefetch_miss 0
Core_3_L2C_writebacks 56055
Core_3_L2C_writeback_hit 56030
Core_3_L2C_writeback_miss 25
Core_3_L2C_miss_rate 0.57920
Core_3_L2C_MPKI 4.04476
Core_3_L2C_demand_miss 202238
Core_3_L2C_prefetch_requested 0
Core_3_L2C_prefetch_issued 0
Core_3_L2C_prefetch_useful 0
Core_3_L2C_prefetch_useless 0
Core_3_L2C_prefetch_late 0
Core_3_L2C_average_miss_latency 198.82581

Replacement_count: 0
Bypassing_count: 0
Core_3_LLC_total_access 247129
Core_3_LLC_total_hit 180383
Core_3_LLC_total_miss_isca 66746
Core_3_LLC_total_overlap_miss 0
Core_3_LLC_loads 154268
Core_3_LLC_load_hit 121750
Core_3_LLC_load_miss 32518
Core_3_LLC_RFOs 47945
Core_3_LLC_RFO_hit 13818
Core_3_LLC_RFO_miss 34127
Core_3_LLC_prefetches 0
Core_3_LLC_prefetch_hit 0
Core_3_LLC_prefetch_miss 0
Core_3_LLC_writebacks 44916
Core_3_LLC_writeback_hit 44815
Core_3_LLC_writeback_miss 101
Core_3_LLC_miss_rate 0.27009
Core_3_LLC_MPKI 1.33492
Core_3_LLC_demand_miss 66746
Core_3_LLC_prefetch_requested 0
Core_3_LLC_prefetch_issued 0
Core_3_LLC_prefetch_useful 0
Core_3_LLC_prefetch_useless 0
Core_3_LLC_prefetch_late 0
Core_3_LLC_average_miss_latency 1680.98783

Replacement_count: 0
Bypassing_count: 0
Core_3_major_page_fault 0
Core_3_minor_page_fault 935





demand_hit_count: 543558
presuse_distance_0_count: 0
presuse_distance_1_count: 21370
presuse_distance_2_count: 36637
presuse_distance_3_count: 43362
presuse_distance_4_count: 43263
presuse_distance_5_count: 38759
presuse_distance_6_count: 34229
presuse_distance_7_count: 29776
presuse_distance_8_count: 26350
presuse_distance_9_count: 24141
presuse_distance_10_count: 21964
presuse_distance_11_count: 20018
presuse_distance_12_count: 18819
presuse_distance_13_count: 17613
presuse_distance_14_count: 16701
presuse_distance_15_count: 15601
presuse_distance_16_count: 15031
presuse_distance_17_count: 14007
presuse_distance_18_count: 12559
presuse_distance_19_count: 11301
presuse_distance_20_count: 10381
presuse_distance_21_count: 9379
presuse_distance_22_count: 8183
presuse_distance_23_count: 7222
presuse_distance_24_count: 6398
presuse_distance_25_count: 5843
presuse_distance_26_count: 5106
presuse_distance_27_count: 4484
presuse_distance_28_count: 3969
presuse_distance_29_count: 3453
presuse_distance_30_count: 2968
presuse_distance_31_count: 2634
presuse_distance_32_count: 2173
presuse_distance_33_count: 1822
presuse_distance_34_count: 1504
presuse_distance_35_count: 1295
presuse_distance_36_count: 1034
presuse_distance_37_count: 832
presuse_distance_38_count: 712
presuse_distance_39_count: 558
presuse_distance_40_count: 458
presuse_distance_41_count: 344
presuse_distance_42_count: 297
presuse_distance_43_count: 223
presuse_distance_44_count: 164
presuse_distance_45_count: 132
presuse_distance_46_count: 121
presuse_distance_47_count: 85
presuse_distance_48_count: 75
presuse_distance_49_count: 46
presuse_distance_50_count: 40
presuse_distance_51_count: 34
presuse_distance_52_count: 19
presuse_distance_53_count: 20
presuse_distance_54_count: 16
presuse_distance_55_count: 8
presuse_distance_56_count: 7
presuse_distance_57_count: 8
presuse_distance_58_count: 3
presuse_distance_59_count: 0
presuse_distance_60_count: 1
presuse_distance_61_count: 2
presuse_distance_62_count: 1
presuse_distance_63_count: 2
presuse_distance_64_count: 0
presuse_distance_larger_than_64_count: 1
Channel_0_RQ_row_buffer_hit 45416
Channel_0_RQ_row_buffer_miss 220172
Channel_0_WQ_row_buffer_hit 17173
Channel_0_WQ_row_buffer_miss 58865
Channel_0_WQ_full 0
Channel_0_dbus_congested 82227

avg_congested_cycle 10

DRAM_bw_pochs 0
DRAM_bw_level_0 0
DRAM_bw_level_1 0
DRAM_bw_level_2 0
DRAM_bw_level_3 0
LLC_cal_level_0 872
LLC_cal_level_1 161
LLC_cal_level_2 0
LLC_cal_level_3 0
*************************************************
   ChampSim Multicore Out-of-Order Simulator
   Last compiled: Aug 26 2022 02:11:32
*************************************************
 DRAM access latency: 170
Off-chip DRAM Size: 4096 MB Channels: 1 Width: 64-bit Data Rate: 2400 MT/s
 DRAM_DBUS_RETURN_TIME: 13

trace_0 /home/cc/champsim/traces/403.gcc-17B.champsimtrace.xz
trace_1 /home/cc/champsim/traces/403.gcc-17B.champsimtrace.xz
trace_2 /home/cc/champsim/traces/403.gcc-17B.champsimtrace.xz
trace_3 /home/cc/champsim/traces/403.gcc-17B.champsimtrace.xz
Initialize PREUSE state
llc_initialize_replacement complete 
warmup_instructions 10000000
simulation_instructions 50000000
champsim_seed 680

num_cpus 4
cpu_freq 4000
dram_io_freq 2400
page_size 4096
block_size 64
max_read_per_cycle 20
max_fill_per_cycle 20
dram_channels 1
dram_ranks 1
dram_banks 8
dram_rows 65536
dram_columns 128
dram_row_size 8
dram_size 4096
dram_pages 1048576

fetch_width 20
decode_width 20
exec_width 20
lq_width 20
sq_width 20
retire_width 20
scheduler_size 128
branch_mispredict_penalty 20
rob_size 256
lq_size 72
sq_size 56
num_instr_destinations_sparc 4
num_instr_destinations 2
num_instr_sources 4

itlb_set 16
itlb_way 8
itlb_rq_size 16
itlb_wq_size 16
itlb_pq_size 0
itlb_mshr_size 8
itlb_latency 1

dtlb_set 16
dtlb_way 4
dtlb_rq_size 16
dtlb_wq_size 16
dtlb_pq_size 0
dtlb_mshr_size 8
dtlb_latency 1

stlb_set 128
stlb_way 12
stlb_rq_size 32
stlb_wq_size 32
stlb_pq_size 0
stlb_mshr_size 16
stlb_latency 8

l1i_size 32
l1i_set 64
l1i_way 8
l1i_rq_size 64
l1i_wq_size 64
l1i_pq_size 8
l1i_mshr_size 8
l1i_latency 1

l1d_size 32
l1d_set 64
l1d_way 8
l1d_rq_size 64
l1d_wq_size 64
l1d_pq_size 8
l1d_mshr_size 16
l1d_latency 4

l2c_size 256
l2c_set 512
l2c_way 8
l2c_rq_size 32
l2c_wq_size 32
l2c_pq_size 16
l2c_mshr_size 32
l2c_latency 10

llc_size 8192
llc_set 8192
llc_way 16
llc_rq_size 128
llc_wq_size 128
llc_pq_size 128
llc_mshr_size 256
llc_latency 20

dram_channel_width 8
dram_wq_size 64
dram_rq_size 64
tRP 15
tRCD 15
tCAS 12.5
dram_dbus_turn_around_time 30
dram_write_high_wm 56
dram_write_low_wm 48
min_dram_writes_per_switch 16
dram_mtps 2400
dram_dbus_return_time 13


Heartbeat CPU  0 instructions:    1000002 cycles:     688800 heartbeat IPC: 1.45180 cumulative IPC: 1.45180 (Simulation time: 0 hr 0 min 6 sec) 
Heartbeat CPU  1 instructions:    1000002 cycles:     688851 heartbeat IPC: 1.45170 cumulative IPC: 1.45170 (Simulation time: 0 hr 0 min 6 sec) 
Heartbeat CPU  2 instructions:    1000002 cycles:     688891 heartbeat IPC: 1.45161 cumulative IPC: 1.45161 (Simulation time: 0 hr 0 min 6 sec) 
Heartbeat CPU  3 instructions:    1000002 cycles:     688937 heartbeat IPC: 1.45151 cumulative IPC: 1.45151 (Simulation time: 0 hr 0 min 6 sec) 
Heartbeat CPU  0 instructions:    2000003 cycles:    1321588 heartbeat IPC: 1.58031 cumulative IPC: 1.51333 (Simulation time: 0 hr 0 min 12 sec) 
Heartbeat CPU  1 instructions:    2000003 cycles:    1321659 heartbeat IPC: 1.58026 cumulative IPC: 1.51325 (Simulation time: 0 hr 0 min 12 sec) 
Heartbeat CPU  2 instructions:    2000003 cycles:    1321714 heartbeat IPC: 1.58022 cumulative IPC: 1.51319 (Simulation time: 0 hr 0 min 12 sec) 
Heartbeat CPU  3 instructions:    2000003 cycles:    1321777 heartbeat IPC: 1.58018 cumulative IPC: 1.51312 (Simulation time: 0 hr 0 min 12 sec) 
Heartbeat CPU  0 instructions:    3000013 cycles:    1942844 heartbeat IPC: 1.60966 cumulative IPC: 1.54413 (Simulation time: 0 hr 0 min 18 sec) 
Heartbeat CPU  1 instructions:    3000013 cycles:    1942932 heartbeat IPC: 1.60961 cumulative IPC: 1.54406 (Simulation time: 0 hr 0 min 18 sec) 
Heartbeat CPU  2 instructions:    3000013 cycles:    1943010 heartbeat IPC: 1.60955 cumulative IPC: 1.54400 (Simulation time: 0 hr 0 min 18 sec) 
Heartbeat CPU  3 instructions:    3000013 cycles:    1943064 heartbeat IPC: 1.60958 cumulative IPC: 1.54396 (Simulation time: 0 hr 0 min 18 sec) 
Heartbeat CPU  0 instructions:    4000000 cycles:    2542095 heartbeat IPC: 1.66873 cumulative IPC: 1.57351 (Simulation time: 0 hr 0 min 24 sec) 
Heartbeat CPU  1 instructions:    4000000 cycles:    2542197 heartbeat IPC: 1.66869 cumulative IPC: 1.57344 (Simulation time: 0 hr 0 min 24 sec) 
Heartbeat CPU  2 instructions:    4000000 cycles:    2542284 heartbeat IPC: 1.66866 cumulative IPC: 1.57339 (Simulation time: 0 hr 0 min 24 sec) 
Heartbeat CPU  3 instructions:    4000000 cycles:    2542360 heartbeat IPC: 1.66860 cumulative IPC: 1.57334 (Simulation time: 0 hr 0 min 24 sec) 
Heartbeat CPU  0 instructions:    5000000 cycles:    3138328 heartbeat IPC: 1.67720 cumulative IPC: 1.59321 (Simulation time: 0 hr 0 min 30 sec) 
Heartbeat CPU  1 instructions:    5000000 cycles:    3138439 heartbeat IPC: 1.67717 cumulative IPC: 1.59315 (Simulation time: 0 hr 0 min 30 sec) 
Heartbeat CPU  2 instructions:    5000000 cycles:    3138541 heartbeat IPC: 1.67713 cumulative IPC: 1.59310 (Simulation time: 0 hr 0 min 30 sec) 
Heartbeat CPU  3 instructions:    5000000 cycles:    3138646 heartbeat IPC: 1.67705 cumulative IPC: 1.59304 (Simulation time: 0 hr 0 min 30 sec) 
Heartbeat CPU  0 instructions:    6000004 cycles:    3694477 heartbeat IPC: 1.79809 cumulative IPC: 1.62405 (Simulation time: 0 hr 0 min 36 sec) 
Heartbeat CPU  1 instructions:    6000004 cycles:    3694591 heartbeat IPC: 1.79808 cumulative IPC: 1.62400 (Simulation time: 0 hr 0 min 36 sec) 
Heartbeat CPU  2 instructions:    6000004 cycles:    3694704 heartbeat IPC: 1.79804 cumulative IPC: 1.62395 (Simulation time: 0 hr 0 min 36 sec) 
Heartbeat CPU  3 instructions:    6000004 cycles:    3694829 heartbeat IPC: 1.79798 cumulative IPC: 1.62389 (Simulation time: 0 hr 0 min 36 sec) 
Heartbeat CPU  0 instructions:    7000002 cycles:    4250271 heartbeat IPC: 1.79922 cumulative IPC: 1.64695 (Simulation time: 0 hr 0 min 42 sec) 
Heartbeat CPU  1 instructions:    7000002 cycles:    4250389 heartbeat IPC: 1.79921 cumulative IPC: 1.64691 (Simulation time: 0 hr 0 min 42 sec) 
Heartbeat CPU  2 instructions:    7000002 cycles:    4250514 heartbeat IPC: 1.79917 cumulative IPC: 1.64686 (Simulation time: 0 hr 0 min 42 sec) 
Heartbeat CPU  3 instructions:    7000002 cycles:    4250657 heartbeat IPC: 1.79911 cumulative IPC: 1.64680 (Simulation time: 0 hr 0 min 42 sec) 
Heartbeat CPU  0 instructions:    8000000 cycles:    4810513 heartbeat IPC: 1.78494 cumulative IPC: 1.66302 (Simulation time: 0 hr 0 min 48 sec) 
Heartbeat CPU  1 instructions:    8000000 cycles:    4810635 heartbeat IPC: 1.78493 cumulative IPC: 1.66298 (Simulation time: 0 hr 0 min 48 sec) 
Heartbeat CPU  2 instructions:    8000000 cycles:    4810763 heartbeat IPC: 1.78492 cumulative IPC: 1.66294 (Simulation time: 0 hr 0 min 48 sec) 
Heartbeat CPU  3 instructions:    8000000 cycles:    4810967 heartbeat IPC: 1.78472 cumulative IPC: 1.66287 (Simulation time: 0 hr 0 min 48 sec) 
Heartbeat CPU  0 instructions:    9000000 cycles:    5389048 heartbeat IPC: 1.72850 cumulative IPC: 1.67005 (Simulation time: 0 hr 0 min 54 sec) 
Heartbeat CPU  1 instructions:    9000000 cycles:    5389180 heartbeat IPC: 1.72847 cumulative IPC: 1.67001 (Simulation time: 0 hr 0 min 54 sec) 
Heartbeat CPU  2 instructions:    9000000 cycles:    5389303 heartbeat IPC: 1.72849 cumulative IPC: 1.66997 (Simulation time: 0 hr 0 min 54 sec) 
Heartbeat CPU  3 instructions:    9000000 cycles:    5389549 heartbeat IPC: 1.72836 cumulative IPC: 1.66990 (Simulation time: 0 hr 0 min 54 sec) 
Heartbeat CPU  0 instructions:   10000014 cycles:    6059073 heartbeat IPC: 1.49250 cumulative IPC: 1.65042 (Simulation time: 0 hr 1 min 0 sec) 
Heartbeat CPU  1 instructions:   10000014 cycles:    6059211 heartbeat IPC: 1.49249 cumulative IPC: 1.65038 (Simulation time: 0 hr 1 min 0 sec) 
Heartbeat CPU  2 instructions:   10000014 cycles:    6059358 heartbeat IPC: 1.49244 cumulative IPC: 1.65034 (Simulation time: 0 hr 1 min 0 sec) 
Heartbeat CPU  3 instructions:   10000014 cycles:    6059636 heartbeat IPC: 1.49236 cumulative IPC: 1.65027 (Simulation time: 0 hr 1 min 0 sec) 

Warmup complete CPU  0 instructions:   10000953 cycles:    6059636 (Simulation time: 0 hr 1 min 0 sec) 
Warmup complete CPU  1 instructions:   10000703 cycles:    6059636 (Simulation time: 0 hr 1 min 0 sec) 
Warmup complete CPU  2 instructions:   10000413 cycles:    6059636 (Simulation time: 0 hr 1 min 0 sec) 
Warmup complete CPU  3 instructions:   10000014 cycles:    6059636 (Simulation time: 0 hr 1 min 0 sec) 

Heartbeat CPU  2 instructions:   11000011 cycles:   11589683 heartbeat IPC: 0.18082 cumulative IPC: 0.18076 (Simulation time: 0 hr 1 min 20 sec) 
Heartbeat CPU  3 instructions:   11000011 cycles:   11589734 heartbeat IPC: 0.18083 cumulative IPC: 0.18083 (Simulation time: 0 hr 1 min 20 sec) 
Heartbeat CPU  0 instructions:   11000011 cycles:   11589785 heartbeat IPC: 0.18081 cumulative IPC: 0.18066 (Simulation time: 0 hr 1 min 20 sec) 
Heartbeat CPU  1 instructions:   11000011 cycles:   11603998 heartbeat IPC: 0.18035 cumulative IPC: 0.18024 (Simulation time: 0 hr 1 min 20 sec) 
Heartbeat CPU  0 instructions:   12000000 cycles:   16519283 heartbeat IPC: 0.20286 cumulative IPC: 0.19112 (Simulation time: 0 hr 1 min 37 sec) 
Heartbeat CPU  3 instructions:   12000000 cycles:   16519334 heartbeat IPC: 0.20285 cumulative IPC: 0.19121 (Simulation time: 0 hr 1 min 37 sec) 
Heartbeat CPU  2 instructions:   12000000 cycles:   16519385 heartbeat IPC: 0.20285 cumulative IPC: 0.19117 (Simulation time: 0 hr 1 min 37 sec) 
Heartbeat CPU  1 instructions:   12000000 cycles:   16543112 heartbeat IPC: 0.20246 cumulative IPC: 0.19071 (Simulation time: 0 hr 1 min 37 sec) 
Heartbeat CPU  2 instructions:   13000000 cycles:   21206922 heartbeat IPC: 0.21333 cumulative IPC: 0.19803 (Simulation time: 0 hr 1 min 54 sec) 
Heartbeat CPU  3 instructions:   13000000 cycles:   21206973 heartbeat IPC: 0.21333 cumulative IPC: 0.19805 (Simulation time: 0 hr 1 min 54 sec) 
Heartbeat CPU  0 instructions:   13000000 cycles:   21207024 heartbeat IPC: 0.21332 cumulative IPC: 0.19799 (Simulation time: 0 hr 1 min 54 sec) 
Heartbeat CPU  1 instructions:   13000000 cycles:   21271196 heartbeat IPC: 0.21150 cumulative IPC: 0.19717 (Simulation time: 0 hr 1 min 54 sec) 
Heartbeat CPU  2 instructions:   14000010 cycles:   25869761 heartbeat IPC: 0.21446 cumulative IPC: 0.20190 (Simulation time: 0 hr 2 min 10 sec) 
Heartbeat CPU  3 instructions:   14000010 cycles:   25869812 heartbeat IPC: 0.21446 cumulative IPC: 0.20192 (Simulation time: 0 hr 2 min 10 sec) 
Heartbeat CPU  0 instructions:   14000010 cycles:   25869863 heartbeat IPC: 0.21446 cumulative IPC: 0.20187 (Simulation time: 0 hr 2 min 10 sec) 
Heartbeat CPU  1 instructions:   14000010 cycles:   25979527 heartbeat IPC: 0.21239 cumulative IPC: 0.20077 (Simulation time: 0 hr 2 min 11 sec) 
Heartbeat CPU  0 instructions:   15000003 cycles:   30392812 heartbeat IPC: 0.22109 cumulative IPC: 0.20544 (Simulation time: 0 hr 2 min 26 sec) 
Heartbeat CPU  2 instructions:   15000003 cycles:   30392863 heartbeat IPC: 0.22109 cumulative IPC: 0.20546 (Simulation time: 0 hr 2 min 26 sec) 
Heartbeat CPU  3 instructions:   15000003 cycles:   30392914 heartbeat IPC: 0.22109 cumulative IPC: 0.20548 (Simulation time: 0 hr 2 min 26 sec) 
Heartbeat CPU  1 instructions:   15000003 cycles:   30523578 heartbeat IPC: 0.22007 cumulative IPC: 0.20435 (Simulation time: 0 hr 2 min 27 sec) 
Heartbeat CPU  3 instructions:   16000000 cycles:   34949336 heartbeat IPC: 0.21947 cumulative IPC: 0.20769 (Simulation time: 0 hr 2 min 43 sec) 
Heartbeat CPU  0 instructions:   16000000 cycles:   34949387 heartbeat IPC: 0.21946 cumulative IPC: 0.20765 (Simulation time: 0 hr 2 min 43 sec) 
Heartbeat CPU  2 instructions:   16000000 cycles:   34949445 heartbeat IPC: 0.21946 cumulative IPC: 0.20767 (Simulation time: 0 hr 2 min 43 sec) 
Heartbeat CPU  1 instructions:   16000000 cycles:   35102592 heartbeat IPC: 0.21839 cumulative IPC: 0.20657 (Simulation time: 0 hr 2 min 44 sec) 
Heartbeat CPU  3 instructions:   17000000 cycles:   39311961 heartbeat IPC: 0.22922 cumulative IPC: 0.21051 (Simulation time: 0 hr 2 min 59 sec) 
Heartbeat CPU  2 instructions:   17000000 cycles:   39312012 heartbeat IPC: 0.22922 cumulative IPC: 0.21050 (Simulation time: 0 hr 2 min 59 sec) 
Heartbeat CPU  0 instructions:   17000000 cycles:   39312063 heartbeat IPC: 0.22922 cumulative IPC: 0.21048 (Simulation time: 0 hr 2 min 59 sec) 
Heartbeat CPU  1 instructions:   17000000 cycles:   39498736 heartbeat IPC: 0.22747 cumulative IPC: 0.20931 (Simulation time: 0 hr 3 min 0 sec) 
Heartbeat CPU  2 instructions:   18000015 cycles:   43618916 heartbeat IPC: 0.23219 cumulative IPC: 0.21299 (Simulation time: 0 hr 3 min 15 sec) 
Heartbeat CPU  3 instructions:   18000015 cycles:   43618967 heartbeat IPC: 0.23218 cumulative IPC: 0.21300 (Simulation time: 0 hr 3 min 15 sec) 
Heartbeat CPU  0 instructions:   18000015 cycles:   43619142 heartbeat IPC: 0.23218 cumulative IPC: 0.21297 (Simulation time: 0 hr 3 min 15 sec) 
Heartbeat CPU  1 instructions:   18000015 cycles:   43822621 heartbeat IPC: 0.23128 cumulative IPC: 0.21183 (Simulation time: 0 hr 3 min 16 sec) 
Heartbeat CPU  0 instructions:   19000007 cycles:   48013045 heartbeat IPC: 0.22759 cumulative IPC: 0.21450 (Simulation time: 0 hr 3 min 31 sec) 
Heartbeat CPU  2 instructions:   19000007 cycles:   48013216 heartbeat IPC: 0.22757 cumulative IPC: 0.21451 (Simulation time: 0 hr 3 min 31 sec) 
Heartbeat CPU  3 instructions:   19000007 cycles:   48013267 heartbeat IPC: 0.22757 cumulative IPC: 0.21452 (Simulation time: 0 hr 3 min 31 sec) 
Heartbeat CPU  1 instructions:   19000007 cycles:   48240273 heartbeat IPC: 0.22636 cumulative IPC: 0.21335 (Simulation time: 0 hr 3 min 32 sec) 
Heartbeat CPU  2 instructions:   20000000 cycles:   52522867 heartbeat IPC: 0.22175 cumulative IPC: 0.21522 (Simulation time: 0 hr 3 min 48 sec) 
Heartbeat CPU  3 instructions:   20000000 cycles:   52522918 heartbeat IPC: 0.22175 cumulative IPC: 0.21522 (Simulation time: 0 hr 3 min 48 sec) 
Heartbeat CPU  0 instructions:   20000000 cycles:   52522969 heartbeat IPC: 0.22173 cumulative IPC: 0.21520 (Simulation time: 0 hr 3 min 48 sec) 
Heartbeat CPU  1 instructions:   20000000 cycles:   52811824 heartbeat IPC: 0.21874 cumulative IPC: 0.21388 (Simulation time: 0 hr 3 min 49 sec) 
Heartbeat CPU  2 instructions:   21000003 cycles:   57120810 heartbeat IPC: 0.21749 cumulative IPC: 0.21542 (Simulation time: 0 hr 4 min 4 sec) 
Heartbeat CPU  3 instructions:   21000003 cycles:   57120861 heartbeat IPC: 0.21749 cumulative IPC: 0.21543 (Simulation time: 0 hr 4 min 4 sec) 
Heartbeat CPU  0 instructions:   21000003 cycles:   57120912 heartbeat IPC: 0.21749 cumulative IPC: 0.21541 (Simulation time: 0 hr 4 min 4 sec) 
Heartbeat CPU  1 instructions:   21000003 cycles:   57449497 heartbeat IPC: 0.21563 cumulative IPC: 0.21404 (Simulation time: 0 hr 4 min 5 sec) 
Heartbeat CPU  2 instructions:   22000000 cycles:   61397302 heartbeat IPC: 0.23384 cumulative IPC: 0.21684 (Simulation time: 0 hr 4 min 20 sec) 
Heartbeat CPU  3 instructions:   22000000 cycles:   61397353 heartbeat IPC: 0.23384 cumulative IPC: 0.21685 (Simulation time: 0 hr 4 min 20 sec) 
Heartbeat CPU  0 instructions:   22000000 cycles:   61398528 heartbeat IPC: 0.23377 cumulative IPC: 0.21683 (Simulation time: 0 hr 4 min 20 sec) 
Heartbeat CPU  1 instructions:   22000000 cycles:   61790706 heartbeat IPC: 0.23035 cumulative IPC: 0.21531 (Simulation time: 0 hr 4 min 21 sec) 
Heartbeat CPU  2 instructions:   23000004 cycles:   65763619 heartbeat IPC: 0.22903 cumulative IPC: 0.21773 (Simulation time: 0 hr 4 min 36 sec) 
Heartbeat CPU  0 instructions:   23000004 cycles:   65763670 heartbeat IPC: 0.22909 cumulative IPC: 0.21772 (Simulation time: 0 hr 4 min 36 sec) 
Heartbeat CPU  3 instructions:   23000004 cycles:   65763721 heartbeat IPC: 0.22902 cumulative IPC: 0.21774 (Simulation time: 0 hr 4 min 36 sec) 
Heartbeat CPU  1 instructions:   23000004 cycles:   66197603 heartbeat IPC: 0.22692 cumulative IPC: 0.21616 (Simulation time: 0 hr 4 min 38 sec) 
Heartbeat CPU  0 instructions:   24000000 cycles:   69661347 heartbeat IPC: 0.25656 cumulative IPC: 0.22010 (Simulation time: 0 hr 4 min 51 sec) 
Heartbeat CPU  2 instructions:   24000000 cycles:   69661398 heartbeat IPC: 0.25656 cumulative IPC: 0.22011 (Simulation time: 0 hr 4 min 51 sec) 
Heartbeat CPU  3 instructions:   24000000 cycles:   69661449 heartbeat IPC: 0.25656 cumulative IPC: 0.22012 (Simulation time: 0 hr 4 min 51 sec) 
Heartbeat CPU  1 instructions:   24000000 cycles:   70117358 heartbeat IPC: 0.25512 cumulative IPC: 0.21854 (Simulation time: 0 hr 4 min 53 sec) 
Heartbeat CPU  0 instructions:   25000003 cycles:   73098009 heartbeat IPC: 0.29098 cumulative IPC: 0.22374 (Simulation time: 0 hr 5 min 5 sec) 
Heartbeat CPU  2 instructions:   25000003 cycles:   73098060 heartbeat IPC: 0.29098 cumulative IPC: 0.22375 (Simulation time: 0 hr 5 min 5 sec) 
Heartbeat CPU  3 instructions:   25000003 cycles:   73098112 heartbeat IPC: 0.29098 cumulative IPC: 0.22375 (Simulation time: 0 hr 5 min 5 sec) 
Heartbeat CPU  1 instructions:   25000003 cycles:   73556138 heartbeat IPC: 0.29080 cumulative IPC: 0.22222 (Simulation time: 0 hr 5 min 7 sec) 
Heartbeat CPU  2 instructions:   26000004 cycles:   76284438 heartbeat IPC: 0.31384 cumulative IPC: 0.22783 (Simulation time: 0 hr 5 min 18 sec) 
Heartbeat CPU  0 instructions:   26000004 cycles:   76284489 heartbeat IPC: 0.31383 cumulative IPC: 0.22783 (Simulation time: 0 hr 5 min 18 sec) 
Heartbeat CPU  3 instructions:   26000004 cycles:   76284670 heartbeat IPC: 0.31382 cumulative IPC: 0.22784 (Simulation time: 0 hr 5 min 18 sec) 
Heartbeat CPU  1 instructions:   26000004 cycles:   76743534 heartbeat IPC: 0.31374 cumulative IPC: 0.22635 (Simulation time: 0 hr 5 min 20 sec) 
Heartbeat CPU  3 instructions:   27000000 cycles:   81337023 heartbeat IPC: 0.19793 cumulative IPC: 0.22583 (Simulation time: 0 hr 5 min 40 sec) 
Heartbeat CPU  0 instructions:   27000000 cycles:   81474791 heartbeat IPC: 0.19267 cumulative IPC: 0.22541 (Simulation time: 0 hr 5 min 40 sec) 
Heartbeat CPU  2 instructions:   27000000 cycles:   81571042 heartbeat IPC: 0.18916 cumulative IPC: 0.22513 (Simulation time: 0 hr 5 min 40 sec) 
Heartbeat CPU  1 instructions:   27000000 cycles:   91442016 heartbeat IPC: 0.06803 cumulative IPC: 0.19910 (Simulation time: 0 hr 6 min 18 sec) 
Heartbeat CPU  3 instructions:   28000000 cycles:  101778278 heartbeat IPC: 0.04892 cumulative IPC: 0.18805 (Simulation time: 0 hr 6 min 56 sec) 
Heartbeat CPU  0 instructions:   28000000 cycles:  101867815 heartbeat IPC: 0.04904 cumulative IPC: 0.18787 (Simulation time: 0 hr 6 min 56 sec) 
Heartbeat CPU  2 instructions:   28000000 cycles:  101954572 heartbeat IPC: 0.04906 cumulative IPC: 0.18770 (Simulation time: 0 hr 6 min 56 sec) 
Heartbeat CPU  1 instructions:   28000000 cycles:  111897845 heartbeat IPC: 0.04889 cumulative IPC: 0.17006 (Simulation time: 0 hr 7 min 33 sec) 
Heartbeat CPU  3 instructions:   29000000 cycles:  122176205 heartbeat IPC: 0.04902 cumulative IPC: 0.16363 (Simulation time: 0 hr 8 min 11 sec) 
Heartbeat CPU  0 instructions:   29000000 cycles:  122243782 heartbeat IPC: 0.04908 cumulative IPC: 0.16353 (Simulation time: 0 hr 8 min 11 sec) 
Heartbeat CPU  2 instructions:   29000000 cycles:  122463804 heartbeat IPC: 0.04876 cumulative IPC: 0.16322 (Simulation time: 0 hr 8 min 12 sec) 
Heartbeat CPU  1 instructions:   29000000 cycles:  132343582 heartbeat IPC: 0.04891 cumulative IPC: 0.15045 (Simulation time: 0 hr 8 min 48 sec) 
Heartbeat CPU  3 instructions:   30000000 cycles:  142581959 heartbeat IPC: 0.04901 cumulative IPC: 0.14650 (Simulation time: 0 hr 9 min 26 sec) 
[...]
Core_1_L1I_total_miss 101
Core_1_L1I_loads 6155600
Core_1_L1I_load_hit 6155499
Core_1_L1I_load_miss 101
Core_1_L1I_RFOs 0
Core_1_L1I_RFO_hit 0
Core_1_L1I_RFO_miss 0
Core_1_L1I_prefetches 0
Core_1_L1I_prefetch_hit 0
Core_1_L1I_prefetch_miss 0
Core_1_L1I_writebacks 0
Core_1_L1I_writeback_hit 0
Core_1_L1I_writeback_miss 0

Core_1_L2C_total_access 618661
Core_1_L2C_total_hit 399691
Core_1_L2C_total_miss 218970
Core_1_L2C_loads 333269
Core_1_L2C_load_hit 132436
Core_1_L2C_load_miss 200833
Core_1_L2C_RFOs 45485
Core_1_L2C_RFO_hit 28112
Core_1_L2C_RFO_miss 17373
Core_1_L2C_prefetches 0
Core_1_L2C_prefetch_hit 0
Core_1_L2C_prefetch_miss 0
Core_1_L2C_writebacks 239907
Core_1_L2C_writeback_hit 239143
Core_1_L2C_writeback_miss 764


Core_1_LLC_total_access 366448
Core_1_LLC_total_hit 287420
Core_1_LLC_total_miss 79028
Core_1_LLC_loads 200833
Core_1_LLC_load_hit 130282
Core_1_LLC_load_miss 70551
Core_1_LLC_RFOs 17373
Core_1_LLC_RFO_hit 9092
Core_1_LLC_RFO_miss 8281
Core_1_LLC_prefetches 0
Core_1_LLC_prefetch_hit 0
Core_1_LLC_prefetch_miss 0
Core_1_LLC_writebacks 148242
Core_1_LLC_writeback_hit 148046
Core_1_LLC_writeback_miss 196


CPU 2 cumulative IPC: 0.58212 instructions: 50071375 cycles: 86015176
Core_2_L1D_total_access 10452816
Core_2_L1D_total_hit 10074308
Core_2_L1D_total_miss 378508
Core_2_L1D_loads 6645485
Core_2_L1D_load_hit 6312446
Core_2_L1D_load_miss 333039
Core_2_L1D_RFOs 3807331
Core_2_L1D_RFO_hit 3761862
Core_2_L1D_RFO_miss 45469
Core_2_L1D_prefetches 0
Core_2_L1D_prefetch_hit 0
Core_2_L1D_prefetch_miss 0
Core_2_L1D_writebacks 0
Core_2_L1D_writeback_hit 0
Core_2_L1D_writeback_miss 0

Core_2_L1I_total_access 6152817
Core_2_L1I_total_hit 6152716
Core_2_L1I_total_miss 101
Core_2_L1I_loads 6152817
Core_2_L1I_load_hit 6152716
Core_2_L1I_load_miss 101
Core_2_L1I_RFOs 0
Core_2_L1I_RFO_hit 0
Core_2_L1I_RFO_miss 0
Core_2_L1I_prefetches 0
Core_2_L1I_prefetch_hit 0
Core_2_L1I_prefetch_miss 0
Core_2_L1I_writebacks 0
Core_2_L1I_writeback_hit 0
Core_2_L1I_writeback_miss 0

Core_2_L2C_total_access 618354
Core_2_L2C_total_hit 397349
Core_2_L2C_total_miss 221005
Core_2_L2C_loads 333124
Core_2_L2C_load_hit 129995
Core_2_L2C_load_miss 203129
Core_2_L2C_RFOs 45447
Core_2_L2C_RFO_hit 28626
Core_2_L2C_RFO_miss 16821
Core_2_L2C_prefetches 0
Core_2_L2C_prefetch_hit 0
Core_2_L2C_prefetch_miss 0
Core_2_L2C_writebacks 239783
Core_2_L2C_writeback_hit 238728
Core_2_L2C_writeback_miss 1055


Core_2_LLC_total_access 367668
Core_2_LLC_total_hit 288259
Core_2_LLC_total_miss 79409
Core_2_LLC_loads 203129
Core_2_LLC_load_hit 132229
Core_2_LLC_load_miss 70900
Core_2_LLC_RFOs 16820
Core_2_LLC_RFO_hit 8553
Core_2_LLC_RFO_miss 8267
Core_2_LLC_prefetches 0
Core_2_LLC_prefetch_hit 0
Core_2_LLC_prefetch_miss 0
Core_2_LLC_writebacks 147719
Core_2_LLC_writeback_hit 147477
Core_2_LLC_writeback_miss 242


CPU 3 cumulative IPC: 0.58131 instructions: 50001440 cycles: 86015176
Core_3_L1D_total_access 10440817
Core_3_L1D_total_hit 10062607
Core_3_L1D_total_miss 378210
Core_3_L1D_loads 6637771
Core_3_L1D_load_hit 6304977
Core_3_L1D_load_miss 332794
Core_3_L1D_RFOs 3803046
Core_3_L1D_RFO_hit 3757630
Core_3_L1D_RFO_miss 45416
Core_3_L1D_prefetches 0
Core_3_L1D_prefetch_hit 0
Core_3_L1D_prefetch_miss 0
Core_3_L1D_writebacks 0
Core_3_L1D_writeback_hit 0
Core_3_L1D_writeback_miss 0

Core_3_L1I_total_access 6142992
Core_3_L1I_total_hit 6142891
Core_3_L1I_total_miss 101
Core_3_L1I_loads 6142992
Core_3_L1I_load_hit 6142891
Core_3_L1I_load_miss 101
Core_3_L1I_RFOs 0
Core_3_L1I_RFO_hit 0
Core_3_L1I_RFO_miss 0
Core_3_L1I_prefetches 0
Core_3_L1I_prefetch_hit 0
Core_3_L1I_prefetch_miss 0
Core_3_L1I_writebacks 0
Core_3_L1I_writeback_hit 0
Core_3_L1I_writeback_miss 0

Core_3_L2C_total_access 617855
Core_3_L2C_total_hit 397789
Core_3_L2C_total_miss 220066
Core_3_L2C_loads 332879
Core_3_L2C_load_hit 130856
Core_3_L2C_load_miss 202023
Core_3_L2C_RFOs 45396
Core_3_L2C_RFO_hit 28158
Core_3_L2C_RFO_miss 17238
Core_3_L2C_prefetches 0
Core_3_L2C_prefetch_hit 0
Core_3_L2C_prefetch_miss 0
Core_3_L2C_writebacks 239580
Core_3_L2C_writeback_hit 238775
Core_3_L2C_writeback_miss 805


Core_3_LLC_total_access 367067
Core_3_LLC_total_hit 287798
Core_3_LLC_total_miss 79269
Core_3_LLC_loads 202023
Core_3_LLC_load_hit 131268
Core_3_LLC_load_miss 70755
Core_3_LLC_RFOs 17236
Core_3_LLC_RFO_hit 8974
Core_3_LLC_RFO_miss 8262
Core_3_LLC_prefetches 0
Core_3_LLC_prefetch_hit 0
Core_3_LLC_prefetch_miss 0
Core_3_LLC_writebacks 147808
Core_3_LLC_writeback_hit 147556
Core_3_LLC_writeback_miss 252


[ROI Statistics]
Core_0_instructions 50000006
Core_0_cycles 86015176
Core_0_IPC 0.58129

Core_0_branch_prediction_accuracy 89.37603
Core_0_branch_MPKI 13.59292
Core_0_average_ROB_occupancy_at_mispredict 66.77442

Core_0_L1D_total_access 10440546
Core_0_L1D_total_hit 10062339
Core_0_L1D_total_miss_isca 378207
Core_0_L1D_total_overlap_miss 0
Core_0_L1D_loads 6637632
Core_0_L1D_load_hit 6304841
Core_0_L1D_load_miss 332791
Core_0_L1D_RFOs 3802914
Core_0_L1D_RFO_hit 3757498
Core_0_L1D_RFO_miss 45416
Core_0_L1D_prefetches 0
Core_0_L1D_prefetch_hit 0
Core_0_L1D_prefetch_miss 0
Core_0_L1D_writebacks 0
Core_0_L1D_writeback_hit 0
Core_0_L1D_writeback_miss 0
Core_0_L1D_miss_rate 0.03622
Core_0_L1D_MPKI 7.56414
Core_0_L1D_demand_miss 378207
Core_0_L1D_prefetch_requested 0
Core_0_L1D_prefetch_issued 0
Core_0_L1D_prefetch_useful 0
Core_0_L1D_prefetch_useless 0
Core_0_L1D_prefetch_late 0
Core_0_L1D_average_miss_latency 161.75862

Replacement_count: 0
Bypassing_count: 0
Core_0_L1I_total_access 6143246
Core_0_L1I_total_hit 6143145
Core_0_L1I_total_miss_isca 101
Core_0_L1I_total_overlap_miss 0
Core_0_L1I_loads 6143246
Core_0_L1I_load_hit 6143145
Core_0_L1I_load_miss 101
Core_0_L1I_RFOs 0
Core_0_L1I_RFO_hit 0
Core_0_L1I_RFO_miss 0
Core_0_L1I_prefetches 0
Core_0_L1I_prefetch_hit 0
Core_0_L1I_prefetch_miss 0
Core_0_L1I_writebacks 0
Core_0_L1I_writeback_hit 0
Core_0_L1I_writeback_miss 0
Core_0_L1I_miss_rate 0.00002
Core_0_L1I_MPKI 0.00202
Core_0_L1I_demand_miss 101
Core_0_L1I_prefetch_requested 0
Core_0_L1I_prefetch_issued 0
Core_0_L1I_prefetch_useful 0
Core_0_L1I_prefetch_useless 0
Core_0_L1I_prefetch_late 0
Core_0_L1I_average_miss_latency 294.33663

Replacement_count: 0
Bypassing_count: 0
Core_0_L2C_total_access 617849
Core_0_L2C_total_hit 397936
Core_0_L2C_total_miss_isca 219913
Core_0_L2C_total_overlap_miss 0
Core_0_L2C_loads 332876
Core_0_L2C_load_hit 131682
Core_0_L2C_load_miss 201194
Core_0_L2C_RFOs 45396
Core_0_L2C_RFO_hit 27432
Core_0_L2C_RFO_miss 17964
Core_0_L2C_prefetches 0
Core_0_L2C_prefetch_hit 0
Core_0_L2C_prefetch_miss 0
Core_0_L2C_writebacks 239577
Core_0_L2C_writeback_hit 238822
Core_0_L2C_writeback_miss 755
Core_0_L2C_miss_rate 0.35593
Core_0_L2C_MPKI 4.39826
Core_0_L2C_demand_miss 219913
Core_0_L2C_prefetch_requested 0
Core_0_L2C_prefetch_issued 0
Core_0_L2C_prefetch_useful 0
Core_0_L2C_prefetch_useless 0
Core_0_L2C_prefetch_late 0
Core_0_L2C_average_miss_latency 223.37516

Replacement_count: 0
Bypassing_count: 0
Core_0_LLC_total_access 367827
Core_0_LLC_total_hit 288546
Core_0_LLC_total_miss_isca 79281
Core_0_LLC_total_overlap_miss 0
Core_0_LLC_loads 201194
Core_0_LLC_load_hit 130380
Core_0_LLC_load_miss 70814
Core_0_LLC_RFOs 17964
Core_0_LLC_RFO_hit 9721
Core_0_LLC_RFO_miss 8243
Core_0_LLC_prefetches 0
Core_0_LLC_prefetch_hit 0
Core_0_LLC_prefetch_miss 0
Core_0_LLC_writebacks 148669
Core_0_LLC_writeback_hit 148445
Core_0_LLC_writeback_miss 224
Core_0_LLC_miss_rate 0.21554
Core_0_LLC_MPKI 1.58562
Core_0_LLC_demand_miss 79281
Core_0_LLC_prefetch_requested 0
Core_0_LLC_prefetch_issued 0
Core_0_LLC_prefetch_useful 0
Core_0_LLC_prefetch_useless 0
Core_0_LLC_prefetch_late 0
Core_0_LLC_average_miss_latency 1793.26290

Replacement_count: 0
Bypassing_count: 0
Core_0_major_page_fault 0
Core_0_minor_page_fault 6437

Core_1_instructions 50000006
Core_1_cycles 85890679
Core_1_IPC 0.58214

Core_1_branch_prediction_accuracy 89.37914
Core_1_branch_MPKI 13.58548
Core_1_average_ROB_occupancy_at_mispredict 66.78461

Core_1_L1D_total_access 10440685
Core_1_L1D_total_hit 10062475
Core_1_L1D_total_miss_isca 378210
Core_1_L1D_total_overlap_miss 0
Core_1_L1D_loads 6637724
Core_1_L1D_load_hit 6304931
Core_1_L1D_load_miss 332793
Core_1_L1D_RFOs 3802961
Core_1_L1D_RFO_hit 3757544
Core_1_L1D_RFO_miss 45417
Core_1_L1D_prefetches 0
Core_1_L1D_prefetch_hit 0
Core_1_L1D_prefetch_miss 0
Core_1_L1D_writebacks 0
Core_1_L1D_writeback_hit 0
Core_1_L1D_writeback_miss 0
Core_1_L1D_miss_rate 0.03622
Core_1_L1D_MPKI 7.56420
Core_1_L1D_demand_miss 378210
Core_1_L1D_prefetch_requested 0
Core_1_L1D_prefetch_issued 0
Core_1_L1D_prefetch_useful 0
Core_1_L1D_prefetch_useless 0
Core_1_L1D_prefetch_late 0
Core_1_L1D_average_miss_latency 160.22481

Replacement_count: 0
Bypassing_count: 0
Core_1_L1I_total_access 6143805
Core_1_L1I_total_hit 6143704
Core_1_L1I_total_miss_isca 101
Core_1_L1I_total_overlap_miss 0
Core_1_L1I_loads 6143805
Core_1_L1I_load_hit 6143704
Core_1_L1I_load_miss 101
Core_1_L1I_RFOs 0
Core_1_L1I_RFO_hit 0
Core_1_L1I_RFO_miss 0
Core_1_L1I_prefetches 0
Core_1_L1I_prefetch_hit 0
Core_1_L1I_prefetch_miss 0
Core_1_L1I_writebacks 0
Core_1_L1I_writeback_hit 0
Core_1_L1I_writeback_miss 0
Core_1_L1I_miss_rate 0.00002
Core_1_L1I_MPKI 0.00202
Core_1_L1I_demand_miss 101
Core_1_L1I_prefetch_requested 0
Core_1_L1I_prefetch_issued 0
Core_1_L1I_prefetch_useful 0
Core_1_L1I_prefetch_useless 0
Core_1_L1I_prefetch_late 0
Core_1_L1I_average_miss_latency 377.88119

Replacement_count: 0
Bypassing_count: 0
Core_1_L2C_total_access 617852
Core_1_L2C_total_hit 399201
Core_1_L2C_total_miss_isca 218651
Core_1_L2C_total_overlap_miss 0
Core_1_L2C_loads 332878
Core_1_L2C_load_hit 132317
Core_1_L2C_load_miss 200561
Core_1_L2C_RFOs 45396
Core_1_L2C_RFO_hit 28069
Core_1_L2C_RFO_miss 17327
Core_1_L2C_prefetches 0
Core_1_L2C_prefetch_hit 0
Core_1_L2C_prefetch_miss 0
Core_1_L2C_writebacks 239578
Core_1_L2C_writeback_hit 238815
Core_1_L2C_writeback_miss 763
Core_1_L2C_miss_rate 0.35389
Core_1_L2C_MPKI 4.37302
Core_1_L2C_demand_miss 218651
Core_1_L2C_prefetch_requested 0
Core_1_L2C_prefetch_issued 0
Core_1_L2C_prefetch_useful 0
Core_1_L2C_prefetch_useless 0
Core_1_L2C_prefetch_late 0
Core_1_L2C_average_miss_latency 221.97786

Replacement_count: 0
Bypassing_count: 0
Core_1_LLC_total_access 365932
Core_1_LLC_total_hit 287026
Core_1_LLC_total_miss_isca 78906
Core_1_LLC_total_overlap_miss 0
Core_1_LLC_loads 200561
Core_1_LLC_load_hit 130114
Core_1_LLC_load_miss 70447
Core_1_LLC_RFOs 17327
Core_1_LLC_RFO_hit 9064
Core_1_LLC_RFO_miss 8263
Core_1_LLC_prefetches 0
Core_1_LLC_prefetch_hit 0
Core_1_LLC_prefetch_miss 0
Core_1_LLC_writebacks 148044
Core_1_LLC_writeback_hit 147848
Core_1_LLC_writeback_miss 196
Core_1_LLC_miss_rate 0.21563
Core_1_LLC_MPKI 1.57812
Core_1_LLC_demand_miss 78906
Core_1_LLC_prefetch_requested 0
Core_1_LLC_prefetch_issued 0
Core_1_LLC_prefetch_useful 0
Core_1_LLC_prefetch_useless 0
Core_1_LLC_prefetch_late 0
Core_1_LLC_average_miss_latency 1801.78536

Replacement_count: 0
Bypassing_count: 0
Core_1_major_page_fault 0
Core_1_minor_page_fault 6440

Core_2_instructions 50000003
Core_2_cycles 85934652
Core_2_IPC 0.58184

Core_2_branch_prediction_accuracy 89.37837
Core_2_branch_MPKI 13.58510
Core_2_average_ROB_occupancy_at_mispredict 66.78248

Core_2_L1D_total_access 10440732
Core_2_L1D_total_hit 10062526
Core_2_L1D_total_miss_isca 378206
Core_2_L1D_total_overlap_miss 0
Core_2_L1D_loads 6637793
Core_2_L1D_load_hit 6305003
Core_2_L1D_load_miss 332790
Core_2_L1D_RFOs 3802939
Core_2_L1D_RFO_hit 3757523
Core_2_L1D_RFO_miss 45416
Core_2_L1D_prefetches 0
Core_2_L1D_prefetch_hit 0
Core_2_L1D_prefetch_miss 0
Core_2_L1D_writebacks 0
Core_2_L1D_writeback_hit 0
Core_2_L1D_writeback_miss 0
Core_2_L1D_miss_rate 0.03622
Core_2_L1D_MPKI 7.56412
Core_2_L1D_demand_miss 378206
Core_2_L1D_prefetch_requested 0
Core_2_L1D_prefetch_issued 0
Core_2_L1D_prefetch_useful 0
Core_2_L1D_prefetch_useless 0
Core_2_L1D_prefetch_late 0
Core_2_L1D_average_miss_latency 161.01016

Replacement_count: 0
Bypassing_count: 0
Core_2_L1I_total_access 6143543
Core_2_L1I_total_hit 6143442
Core_2_L1I_total_miss_isca 101
Core_2_L1I_total_overlap_miss 0
Core_2_L1I_loads 6143543
Core_2_L1I_load_hit 6143442
Core_2_L1I_load_miss 101
Core_2_L1I_RFOs 0
Core_2_L1I_RFO_hit 0
Core_2_L1I_RFO_miss 0
Core_2_L1I_prefetches 0
Core_2_L1I_prefetch_hit 0
Core_2_L1I_prefetch_miss 0
Core_2_L1I_writebacks 0
Core_2_L1I_writeback_hit 0
Core_2_L1I_writeback_miss 0
Core_2_L1I_miss_rate 0.00002
Core_2_L1I_MPKI 0.00202
Core_2_L1I_demand_miss 101
Core_2_L1I_prefetch_requested 0
Core_2_L1I_prefetch_issued 0
Core_2_L1I_prefetch_useful 0
Core_2_L1I_prefetch_useless 0
Core_2_L1I_prefetch_late 0
Core_2_L1I_average_miss_latency 323.40594

Replacement_count: 0
Bypassing_count: 0
Core_2_L2C_total_access 617845
Core_2_L2C_total_hit 397031
Core_2_L2C_total_miss_isca 220814
Core_2_L2C_total_overlap_miss 0
Core_2_L2C_loads 332875
Core_2_L2C_load_hit 129910
Core_2_L2C_load_miss 202965
Core_2_L2C_RFOs 45394
Core_2_L2C_RFO_hit 28598
Core_2_L2C_RFO_miss 16796
Core_2_L2C_prefetches 0
Core_2_L2C_prefetch_hit 0
Core_2_L2C_prefetch_miss 0
Core_2_L2C_writebacks 239576
Core_2_L2C_writeback_hit 238523
Core_2_L2C_writeback_miss 1053
Core_2_L2C_miss_rate 0.35739
Core_2_L2C_MPKI 4.41628
Core_2_L2C_demand_miss 220814
Core_2_L2C_prefetch_requested 0
Core_2_L2C_prefetch_issued 0
Core_2_L2C_prefetch_useful 0
Core_2_L2C_prefetch_useless 0
Core_2_L2C_prefetch_late 0
Core_2_L2C_average_miss_latency 221.15113

Replacement_count: 0
Bypassing_count: 0
Core_2_LLC_total_access 367357
Core_2_LLC_total_hit 288012
Core_2_LLC_total_miss_isca 79345
Core_2_LLC_total_overlap_miss 0
Core_2_LLC_loads 202965
Core_2_LLC_load_hit 132124
Core_2_LLC_load_miss 70841
Core_2_LLC_RFOs 16795
Core_2_LLC_RFO_hit 8533
Core_2_LLC_RFO_miss 8262
Core_2_LLC_prefetches 0
Core_2_LLC_prefetch_hit 0
Core_2_LLC_prefetch_miss 0
Core_2_LLC_writebacks 147597
Core_2_LLC_writeback_hit 147355
Core_2_LLC_writeback_miss 242
Core_2_LLC_miss_rate 0.21599
Core_2_LLC_MPKI 1.58690
Core_2_LLC_demand_miss 79345
Core_2_LLC_prefetch_requested 0
Core_2_LLC_prefetch_issued 0
Core_2_LLC_prefetch_useful 0
Core_2_LLC_prefetch_useless 0
Core_2_LLC_prefetch_late 0
Core_2_LLC_average_miss_latency 1791.81645

Replacement_count: 0
Bypassing_count: 0
Core_2_major_page_fault 0
Core_2_minor_page_fault 6440

Core_3_instructions 50000000
Core_3_cycles 86013020
Core_3_IPC 0.58131

Core_3_branch_prediction_accuracy 89.37611
Core_3_branch_MPKI 13.59293
Core_3_average_ROB_occupancy_at_mispredict 66.77371

Core_3_L1D_total_access 10440505
Core_3_L1D_total_hit 10062303
Core_3_L1D_total_miss_isca 378202
Core_3_L1D_total_overlap_miss 0
Core_3_L1D_loads 6637558
Core_3_L1D_load_hit 6304771
Core_3_L1D_load_miss 332787
Core_3_L1D_RFOs 3802947
Core_3_L1D_RFO_hit 3757532
Core_3_L1D_RFO_miss 45415
Core_3_L1D_prefetches 0
Core_3_L1D_prefetch_hit 0
Core_3_L1D_prefetch_miss 0
Core_3_L1D_writebacks 0
Core_3_L1D_writeback_hit 0
Core_3_L1D_writeback_miss 0
Core_3_L1D_miss_rate 0.03622
Core_3_L1D_MPKI 7.56404
Core_3_L1D_demand_miss 378202
Core_3_L1D_prefetch_requested 0
Core_3_L1D_prefetch_issued 0
Core_3_L1D_prefetch_useful 0
Core_3_L1D_prefetch_useless 0
Core_3_L1D_prefetch_late 0
Core_3_L1D_average_miss_latency 162.08622

Replacement_count: 0
Bypassing_count: 0
Core_3_L1I_total_access 6142813
Core_3_L1I_total_hit 6142712
Core_3_L1I_total_miss_isca 101
Core_3_L1I_total_overlap_miss 0
Core_3_L1I_loads 6142813
Core_3_L1I_load_hit 6142712
Core_3_L1I_load_miss 101
Core_3_L1I_RFOs 0
Core_3_L1I_RFO_hit 0
Core_3_L1I_RFO_miss 0
Core_3_L1I_prefetches 0
Core_3_L1I_prefetch_hit 0
Core_3_L1I_prefetch_miss 0
Core_3_L1I_writebacks 0
Core_3_L1I_writeback_hit 0
Core_3_L1I_writeback_miss 0
Core_3_L1I_miss_rate 0.00002
Core_3_L1I_MPKI 0.00202
Core_3_L1I_demand_miss 101
Core_3_L1I_prefetch_requested 0
Core_3_L1I_prefetch_issued 0
Core_3_L1I_prefetch_useful 0
Core_3_L1I_prefetch_useless 0
Core_3_L1I_prefetch_late 0
Core_3_L1I_average_miss_latency 387.52475

Replacement_count: 0
Bypassing_count: 0
Core_3_L2C_total_access 617840
Core_3_L2C_total_hit 397782
Core_3_L2C_total_miss_isca 220058
Core_3_L2C_total_overlap_miss 0
Core_3_L2C_loads 332872
Core_3_L2C_load_hit 130856
Core_3_L2C_load_miss 202016
Core_3_L2C_RFOs 45395
Core_3_L2C_RFO_hit 28158
Core_3_L2C_RFO_miss 17237
Core_3_L2C_prefetches 0
Core_3_L2C_prefetch_hit 0
Core_3_L2C_prefetch_miss 0
Core_3_L2C_writebacks 239573
Core_3_L2C_writeback_hit 238768
Core_3_L2C_writeback_miss 805
Core_3_L2C_miss_rate 0.35617
Core_3_L2C_MPKI 4.40116
Core_3_L2C_demand_miss 220058
Core_3_L2C_prefetch_requested 0
Core_3_L2C_prefetch_issued 0
Core_3_L2C_prefetch_useful 0
Core_3_L2C_prefetch_useless 0
Core_3_L2C_prefetch_late 0
Core_3_L2C_average_miss_latency 223.82467

Replacement_count: 0
Bypassing_count: 0
Core_3_LLC_total_access 367055
Core_3_LLC_total_hit 287788
Core_3_LLC_total_miss_isca 79267
Core_3_LLC_total_overlap_miss 0
Core_3_LLC_loads 202016
Core_3_LLC_load_hit 131262
Core_3_LLC_load_miss 70754
Core_3_LLC_RFOs 17235
Core_3_LLC_RFO_hit 8974
Core_3_LLC_RFO_miss 8261
Core_3_LLC_prefetches 0
Core_3_LLC_prefetch_hit 0
Core_3_LLC_prefetch_miss 0
Core_3_LLC_writebacks 147804
Core_3_LLC_writeback_hit 147552
Core_3_LLC_writeback_miss 252
Core_3_LLC_miss_rate 0.21595
Core_3_LLC_MPKI 1.58534
Core_3_LLC_demand_miss 79267
Core_3_LLC_prefetch_requested 0
Core_3_LLC_prefetch_issued 0
Core_3_LLC_prefetch_useful 0
Core_3_LLC_prefetch_useless 0
Core_3_LLC_prefetch_late 0
Core_3_LLC_average_miss_latency 1793.57962

Replacement_count: 0
Bypassing_count: 0
Core_3_major_page_fault 0
Core_3_minor_page_fault 6437





demand_hit_count: 560502
presuse_distance_0_count: 0
presuse_distance_1_count: 28569
presuse_distance_2_count: 50040
presuse_distance_3_count: 57557
presuse_distance_4_count: 54129
presuse_distance_5_count: 47773
presuse_distance_6_count: 40937
presuse_distance_7_count: 34744
presuse_distance_8_count: 29916
presuse_distance_9_count: 25579
presuse_distance_10_count: 21998
presuse_distance_11_count: 19118
presuse_distance_12_count: 17169
presuse_distance_13_count: 15280
presuse_distance_14_count: 13635
presuse_distance_15_count: 12387
presuse_distance_16_count: 11195
presuse_distance_17_count: 10149
presuse_distance_18_count: 9256
presuse_distance_19_count: 8430
presuse_distance_20_count: 7585
presuse_distance_21_count: 6767
presuse_distance_22_count: 5899
presuse_distance_23_count: 5166
presuse_distance_24_count: 4474
presuse_distance_25_count: 3810
presuse_distance_26_count: 3261
presuse_distance_27_count: 2649
presuse_distance_28_count: 2295
presuse_distance_29_count: 1914
presuse_distance_30_count: 1483
presuse_distance_31_count: 1305
presuse_distance_32_count: 1123
presuse_distance_33_count: 876
presuse_distance_34_count: 679
presuse_distance_35_count: 579
presuse_distance_36_count: 482
presuse_distance_37_count: 415
presuse_distance_38_count: 379
presuse_distance_39_count: 259
presuse_distance_40_count: 231
presuse_distance_41_count: 155
presuse_distance_42_count: 159
presuse_distance_43_count: 129
presuse_distance_44_count: 100
presuse_distance_45_count: 78
presuse_distance_46_count: 75
presuse_distance_47_count: 59
presuse_distance_48_count: 51
presuse_distance_49_count: 36
presuse_distance_50_count: 31
presuse_distance_51_count: 24
presuse_distance_52_count: 16
presuse_distance_53_count: 12
presuse_distance_54_count: 14
presuse_distance_55_count: 12
presuse_distance_56_count: 9
presuse_distance_57_count: 8
presuse_distance_58_count: 8
presuse_distance_59_count: 5
presuse_distance_60_count: 5
presuse_distance_61_count: 3
presuse_distance_62_count: 6
presuse_distance_63_count: 4
presuse_distance_64_count: 0
presuse_distance_larger_than_64_count: 11
Channel_0_RQ_row_buffer_hit 52770
Channel_0_RQ_row_buffer_miss 263297
Channel_0_WQ_row_buffer_hit 46049
Channel_0_WQ_row_buffer_miss 177836
Channel_0_WQ_full 0
Channel_0_dbus_congested 124646

avg_congested_cycle 10

DRAM_bw_pochs 0
DRAM_bw_level_0 0
DRAM_bw_level_1 0
DRAM_bw_level_2 0
DRAM_bw_level_3 0
LLC_cal_level_0 632
LLC_cal_level_1 596
LLC_cal_level_2 0
LLC_cal_level_3 1
